!r2SCANh opt aug-cc-pVTZ d3 TightSCF SlowConv RIJCOSX defgrid2

%pal
nprocs 8
end

%scf
MaxIter 1500
end

%maxcore 3500

!CPCM
%cpcm smd true
SMDsolvent "MeCN"
surfacetype gepol_ses
rsolv 2.19
end 

* xyz 0 1
  C           1.35417777117907     -0.65406995240560      0.79948726944426
  C           2.60438513280883     -1.25994276894922      0.84954003747904
  C           3.68344790380097     -0.71999641049965      0.15497211057626
  C           3.50660738351577      0.43947194664888     -0.59401215387855
  C           2.26060390365759      1.05304135560245     -0.65888291426072
  C           1.19171004686849      0.49898658044043      0.03645013929688
  O          -0.00001641304932      1.19288277645614      0.00010190817305
  C          -1.19171118388442      0.49900233774687     -0.03638058606476
  C          -2.26073143386919      1.05309671680890      0.65874573635241
  C          -3.50672129933369      0.43951119140539      0.59370893351233
  C          -3.68343750339537     -0.72003192620985     -0.15518626198969
  C          -2.60425130219278     -1.26007972735717     -0.84947443996517
  C          -1.35407111022235     -0.65417339438681     -0.79927336088568
  H          -0.51726340198580     -1.06965515696509     -1.34679672259882
  H          -2.73380230233493     -2.15751438471684     -1.44311666275030
  H          -4.65433657701428     -1.19810235944476     -0.20028196634197
  H          -4.34007086552899      0.87022201246994      1.13631011439279
  H          -2.10719151371809      1.95492125572489      1.23885613902283
  H           2.10696960257248      1.95483629764118     -1.23902045617933
  H           4.33987477531195      0.87015227662086     -1.13676761059202
  H           4.65436181626334     -1.19805192085525      0.19996962143919
  H           2.73406310958975     -2.15728853568205      1.44329395480944
  H           0.51745176096101     -1.06946241009361      1.34721687100852
*
