16
Coordinates from ORCA-job cs_rporg_140_ox_opt_04 E -400.355002541839
  C           0.95180407472531     -1.31188220048885      0.00151496477388
  C           2.29309799387118     -1.04827708170019     -0.00215887401742
  C           2.73550383708203      0.28284018526247     -0.00234441322542
  C           1.83259767249921      1.35550065681082      0.00096260029575
  C           0.48923956050047      1.10970244875103      0.00345584335718
  C           0.02416461722818     -0.23743361643122      0.00354118565354
  C          -1.34579693296487     -0.54849472428010      0.00354173523106
  N          -2.22583640179954      0.43044966164510     -0.00112088450319
  O          -3.45769864887049     -0.04369310268911     -0.00600794002218
  H          -4.03930672417211      0.73950697062728     -0.00719647504105
  H          -1.68021078799499     -1.58294806394849      0.00623606209930
  H          -0.22797034983280      1.91846133225789      0.00600148234005
  H           2.20496513024084      2.37079548204836      0.00087493117078
  H           3.79916822146812      0.48558749500585     -0.00502811370793
  H           3.01390127096781     -1.85431937982863     -0.00470590669851
  H           0.58007036705165     -2.32842006304221      0.00262440229417
