!PBE0 opt aug-cc-pVTZ d3 TightSCF SlowConv RIJCOSX defgrid2

%pal
nprocs 8
end

%scf
MaxIter 1500
end

%maxcore 3500

!CPCM
%cpcm smd true
SMDsolvent "MeCN"
surfacetype gepol_ses
rsolv 2.19
end 

* xyz 1 2
C           0.96002552011709     -1.32253975774944      0.00002107203161
C           2.30946577689281     -1.05292578484351     -0.00001183018851
C           2.75162476164071      0.28756052755572     -0.00002650301661
C           1.83902538005307      1.36187223575537     -0.00000118304244
C           0.48711647576379      1.10797066538425      0.00002893131122
C           0.02041417697925     -0.24724272024865      0.00003631726405
C          -1.36049677571781     -0.55035510408661      0.00004151636512
N          -2.24435922885682      0.43165315940707      0.00003462017491
O          -3.46568256477989     -0.02410885729296      0.00002059528734
H          -4.06414072403569      0.75247060999126      0.00003013023410
H          -1.71241527206750     -1.59215357045924      0.00004127844656
H          -0.24324441524782      1.92013568517355      0.00004228420146
H           2.20910910746605      2.39016696582870     -0.00001172730682
H           3.82614866589464      0.49606739820897     -0.00005739041351
H           3.03863533465800     -1.86708723654366     -0.00002808352063
H           0.59646668124012     -2.35410821608081      0.00003057217215
*
