!PBE0 def2-SV(p) Opt Freq d3 TightSCF SlowConv RIJCOSX defgrid2
 
%pal
nprocs 4
end
 
%scf
MaxIter 1500
end
 
%maxcore 3000
 

 
* xyz 0 1
C    -0.4722032    1.1978461    0.0001838 
C     0.9099071    1.2083748    0.0001786 
C     1.6045847    0.0073429    0.0000142 
C     0.9312792   -1.2057627   -0.0001298 
C    -0.4488775   -1.2050996   -0.0001116 
C    -1.1717436   -0.0097299    0.0000333 
C    -2.6559768   -0.0916384    0.0000109 
O    -3.2262272   -1.1672854    0.0002719 
C    -3.4198951    1.2052261   -0.0003405 
H    -3.1672867    1.7856808    0.8838549 
H    -3.1668844    1.7854653   -0.8845585 
H    -4.4861628    0.9933823   -0.0005379 
H    -0.9966491   -2.1356134   -0.0002230 
H     1.4821633   -2.1327046   -0.0002552 
Cl    3.3367026    0.0230795   -0.0000089 
H     1.4504249    2.1414519    0.0002984 
H    -0.9960998    2.1393207    0.0003215
*
