18
Coordinates from ORCA-job cs_rporg_001_ox_opt_03 E -384.954549927706
  C           2.44470649494876     -0.69496637901521     -0.00004155761448
  C           2.44472454732584      0.69490418962886     -0.00022697111032
  C           1.23153317480760      1.40081103750946     -0.00024406371487
  C           0.00001071869178      0.71431604051320      0.00000968155977
  C          -1.23149311671810      1.40084145683914      0.00026517195107
  C          -2.44470577287559      0.69496826824150      0.00023764420365
  C          -2.44472443380789     -0.69490426134103      0.00004830892344
  C          -1.23152794961053     -1.40080575336343      0.00008556724091
  C          -0.00000848513449     -0.71431072885149      0.00001063051015
  C           1.23149477575340     -1.40083852479128     -0.00006639827770
  H           1.23641876715128     -2.49408693639074      0.00001462208782
  H          -1.23647713340018     -2.49405518766728     -0.00001108684481
  H          -3.38877499236081     -1.24506833081857     -0.00038590323619
  H          -3.38874494254440      1.24515529913314     -0.00005333998106
  H          -1.23641441486275      2.49408787429660      0.00028942821613
  H           1.23648995825509      2.49405988316742     -0.00027585817280
  H           3.38877658612916      1.24506653294684      0.00005023463937
  H           3.38874721825184     -1.24515248003716      0.00037048961993
