!PBE0 def2-SV(p) Opt Freq d3 TightSCF SlowConv RIJCOSX defgrid2

%pal
nprocs 15
end

%scf
MaxIter 1500
end

%maxcore 3500

 

* xyz -1 2
C        0.000000000      0.000000000      0.000000000
C       -1.156068693     -0.354690359      0.698164000
C        1.156068693      0.354690359      0.698164000
H       -2.055493799     -0.630640582      0.154991000
H        2.055493799      0.630640582      0.154991000
C       -1.156068693     -0.354690359      2.094494000
C        1.156068693      0.354690359      2.094494000
H       -2.055493799     -0.630640582      2.637667000
H        2.055493799      0.630640582      2.637667000
C        0.000000000      0.000000000      2.792658000
O        0.000000000      0.000000000      4.232658000
O        0.000000000      0.000000000     -1.440000000
*
