!PBE0 def2-SV(p) Opt Freq d3 TightSCF SlowConv RIJCOSX defgrid2
 
%pal
nprocs 4
end
 
%scf
MaxIter 1500
end
 
%maxcore 3000
 

 
* xyz 0 1
C     0.6936313   -1.2092344   -0.0024499 
C    -0.6856804   -1.2127634   -0.0027922 
C    -1.3607326    0.0043511    0.0000590 
C    -0.6684307    1.2117396    0.0032110 
C     0.7127751    1.2034173    0.0033483 
C     1.4076196   -0.0077787    0.0005258 
C     2.9026727   -0.0909457    0.0007352 
O     3.4604156   -1.1688904    0.0068512 
C     3.6631135    1.2035889   -0.0069850 
H     3.4142088    1.7872947    0.8766168 
H     4.7296633    0.9929016   -0.0108033 
H     3.4061565    1.7821900   -0.8915698 
H     1.2391199    2.1431738    0.0059858 
H    -1.2235053    2.1371699    0.0055199 
N    -2.7975921    0.0154529   -0.0001595 
O    -3.3627222    1.0929924    0.0016658 
O    -3.3795245   -1.0530678   -0.0020899 
H    -1.2480988   -2.1334410   -0.0051788 
H     1.2478522   -2.1355373   -0.0045251
*
