!PBE0 def2-SV(p) Opt Freq d3 TightSCF SlowConv RIJCOSX defgrid2
 
%pal
nprocs 4
end
 
%scf
MaxIter 1500
end
 
%maxcore 3000
 

 
* xyz 0 1
C    -0.7064958   -1.0313350    0.0000863 
C    -1.2995125    0.2282436    0.0000737 
C    -0.4861945    1.3656996    0.0000701 
C     0.8849017    1.2475349    0.0000011 
C     1.4831254   -0.0155243   -0.0001040 
C     0.6715425   -1.1472200    0.0000115 
H     1.1262687   -2.1271080   -0.0000631 
C     2.8935123   -0.1428567   -0.0007563 
C     4.0896554   -0.2523829    0.0011174 
H     5.1343870   -0.3471914   -0.0004867 
H     1.5063473    2.1308212   -0.0000792 
H    -0.9618930    2.3341311    0.0000432 
O    -2.6413916    0.4603344    0.0000285 
C    -3.5214949   -0.6425078    0.0000396 
H    -4.5231098   -0.2160814   -0.0000204 
H    -3.3889000   -1.2597418   -0.8940259 
H    -3.3889645   -1.2596560    0.8941733 
H    -1.3060256   -1.9277007    0.0000731
*
