18
Coordinates from ORCA-job cs_rporg_002_red_opt_04 E -422.593029665045
  C          -0.72844113336504     -1.01988648432858      0.00072322180101
  C          -1.30909376605483      0.24683216303840      0.00063082242142
  C          -0.49365301220367      1.38098855261362      0.00018314688568
  C           0.87711594591759      1.25088400620168     -0.00015803208382
  C           1.47485444635133     -0.01665685280687      0.00000810841790
  C           0.65098246038618     -1.14221616945282      0.00047386585397
  H           1.09554970674678     -2.12957770638801      0.00012674149531
  C           2.89085909393876     -0.15122894132289     -0.00076409296374
  C           4.09006162513541     -0.26398198326605      0.00048251410395
  H           5.15245743310837     -0.36299626304204     -0.00086313376933
  H           1.50088864011991      2.13581206596647     -0.00075630781266
  H          -0.95587216539042      2.36030606713226      0.00032696852625
  O          -2.63572955084796      0.47019259515968      0.00095274886337
  C          -3.49742715918133     -0.65546584927745     -0.00034886957812
  H          -4.51030419136153     -0.25898599122552     -0.00068100875977
  H          -3.34841710589783     -1.26665311092626     -0.89411578937733
  H          -3.34970254733187     -1.26805821035966      0.89268309950975
  H          -1.33837062006984     -1.91184908771595      0.00127819646616
