!PBE0 def2-SV(p) Opt Freq d3 TightSCF SlowConv RIJCOSX defgrid2
 

%scf
MaxIter 1500
end
 
%maxcore 3000
 

 
* xyz 0 1
6       -1.205680000     -1.098431000      0.019393000
6        0.004323000     -1.789641000      0.038455000
6        1.211153000     -1.095480000      0.029376000
6        1.224958000      0.304080000     -0.001790000
6        2.525862000      1.056515000     -0.033467000
1        2.492140017      1.949439664      0.611953667
1        3.364923444      0.423750852      0.305336723
1        2.767142178      1.393657060     -1.058188681
6        0.000316000      0.978043000     -0.018674000
6       -1.223680000      0.299756000     -0.006184000
6       -2.523904000      1.054132000      0.009307000
1       -2.402748000      2.077337000     -0.382591000
1       -2.919965000      1.139519000      1.038749000
1       -3.293647000      0.544037000     -0.594666000
1       -0.001195000      2.073744000     -0.043624000
1        2.157749000     -1.646052000      0.043718000
1        0.005425000     -2.883958000      0.058980000
1       -2.150440000     -1.652142000      0.024412000
*
