15
Coordinates from ORCA-job cs_rporg_100_red_opt_05 E -383.622215903219
  C           0.90035465191286     -1.41516467771634     -0.00036580395087
  C           2.11558884192117     -0.74121047186989      0.00001268935570
  C           2.17142569053237      0.66070365600397     -0.00010036665022
  C           1.01697240058077      1.42920791869305     -0.00046332122656
  C          -0.21712697728890      0.77264634026920     -0.00070254678501
  C          -0.23801301371576     -0.62926472338504     -0.00076898516012
  O          -1.52954067356825     -1.07971715396842     -0.00057453720056
  C          -2.32402044733735      0.04099872249939     -0.00008954375315
  C          -1.59888359139854      1.17872108163110     -0.00026151249450
  H          -1.99046705438500      2.18174899999245      0.00096920151183
  H          -3.38404955869549     -0.14413298909061      0.00116343127668
  H           1.07028598544838      2.50940304147758     -0.00045099380859
  H           3.13679246271518      1.14839861603475      0.00058429883179
  H           3.03587127710605     -1.30894327237406      0.00115443072993
  H           0.84386010617252     -2.49441878819714     -0.00002164067639
