14
Coordinates from ORCA-job cs_rporg_075_ox_opt_08 E -287.567491725607
  C          -0.22381504505562     -1.23975545375570     -0.03913579051996
  C           1.14522923058098     -1.22440374742342      0.00229965726110
  C           1.83915248937225     -0.00003922552342      0.02326359713568
  C           1.14527237981799      1.22434907219554      0.00229878069653
  C          -0.22377175785315      1.23974759708822     -0.03913802007608
  C          -0.93307945942870      0.00000842272250     -0.05993298174596
  N          -2.25923940952765      0.00003186429037     -0.09840812502581
  H          -2.78549408391981      0.86519436838028     -0.11494960352969
  H          -2.78552488569695     -0.86511198987840     -0.11493738823656
  H          -0.78304633709339      2.16602602830245     -0.05617317261649
  H           1.69721287182779      2.15430315487736      0.01888479768685
  H           2.92065686748363     -0.00005944400676      0.05532825705902
  H           1.69713856059393     -2.15437629945273      0.01888896680239
  H          -0.78312312110130     -2.16601434781626     -0.05616417489104
