!r2SCANh aug-cc-pVTZ d3 TightSCF SlowConv RIJCOSX defgrid2
 
%pal
nprocs 4
end
 
%scf
MaxIter 1500
end
 
%maxcore 3000
 
!CPCM
%cpcm smd true
SMDsolvent "MeCN"
surfacetype gepol_ses
rsolv 2.19
end 
 
* xyz 1 2
C          -1.06386344655545     -0.91329923764825      0.00354757702725
C           0.22163478430249     -1.40337223094175      0.04858043804036
C           0.53945025913243     -2.86197889510622      0.10169084984005
H          -0.37259520711996     -3.47715377611844      0.08589055463224
H           1.10475563615799     -3.10497153663765      1.01926780026075
H           1.17109714187519     -3.15621662267989     -0.75541137044371
C           1.27360747036098     -0.44465743263894      0.04352288846465
C           1.04730295949006      0.97973504194292     -0.00482697142823
C           2.21826802319715      1.89495355633420     -0.00501918248716
H           2.87852806587755      1.67773079367681     -0.86595049735279
H           1.91752465121824      2.95187818048041     -0.04884973003982
H           2.83071273968936      1.73802851771994      0.90320153771289
C          -0.25714882442837      1.42208817632644     -0.04842885905841
C          -1.33212517936375      0.50020425527138     -0.04514025959234
C          -2.73438084453214      0.95960010306211     -0.09132088440263
H          -3.24557910809032      0.52601718911780     -0.97488501067325
H          -2.82792542810869      2.05448934777564     -0.12005666171949
H          -3.29093535822372      0.56719702138835      0.78377537035428
H          -0.47441598823820      2.49274908825876     -0.08618140398361
H           2.30992878348264     -0.80041103745640      0.07738415126096
H          -1.91351563012347     -1.60314880212721      0.00441476358802
*
