!PBE0 def2-SV(p) Opt Freq d3 TightSCF SlowConv RIJCOSX defgrid2
 
%pal
nprocs 4
end
 
%scf
MaxIter 1500
end
 
%maxcore 3000
 

 
* xyz 0 1
C     0.4266858   -1.1430843   -0.1972553 
N     1.2277860    0.0001417    0.2139514 
H     1.3078802    0.0000682    1.2273709 
C     0.4264323    1.1432524   -0.1970888 
C    -1.0492257    0.7695542    0.0712157 
C    -1.0489885   -0.7698331    0.0714474 
H    -1.3683594   -1.1579695    1.0391369 
H    -1.7053953   -1.1817604   -0.6924235 
H    -1.3691308    1.1578976    1.0386407 
H    -1.7054612    1.1810088   -0.6930588 
H     0.5857877    1.2861804   -1.2703290 
H     0.7397873    2.0472909    0.3240985 
H     0.5858645   -1.2856625   -1.2705692 
H     0.7403797   -2.0471823    0.3236236
*
