!PBE0 def2-SV(p) Opt Freq d3 TightSCF SlowConv RIJCOSX defgrid2
 
%pal
nprocs 8
end
 
%scf
MaxIter 1500
end
 
%maxcore 3000
 

 
* xyz 0 1
C    -1.1554116   -1.2366371   -0.0005164 
C    -2.5040530   -0.9441133   -0.0006621 
C    -2.9272921    0.3777353   -0.0001167 
C    -1.9975818    1.4076040    0.0005962 
C    -0.6446683    1.1268452    0.0007106 
C    -0.2103249   -0.2009910    0.0001466 
C     1.1893540   -0.5933280    0.0002308 
O     1.6420268   -1.6988832    0.0005603 
Cl    2.3522794    0.7628237   -0.0004083 
H     0.0785934    1.9259463    0.0012658 
H    -2.3289731    2.4343511    0.0010450 
H    -3.9823353    0.6048902   -0.0002305 
H    -3.2263286   -1.7455340   -0.0011977 
H    -0.8059621   -2.2577752   -0.0009289 
*
