!B3LYP aug-cc-pVTZ d3 TightSCF SlowConv RIJCOSX defgrid2
 
%pal
nprocs 4
end
 
%scf
MaxIter 1500
end
 
%maxcore 3000
 
!CPCM
%cpcm smd true
SMDsolvent "MeCN"
surfacetype gepol_ses
rsolv 2.19
end 
 
* xyz -1 2
C          -1.37883091856119     -1.21517375011549     -0.00008867448001
C           0.00729805129085     -1.22295651486138     -0.00028940061097
C           0.72993387220770     -0.00000590382604     -0.00030312643494
C           0.00732184530524      1.22296016475999     -0.00010449796565
C          -1.37880870032056      1.21520147102756      0.00009142728977
C          -2.06946528458053      0.00001961491822      0.00010470343428
F          -3.42567015063122      0.00002957691106      0.00031309610633
H          -1.94941667505959      2.14990360317295      0.00023681861010
H           0.58443906920603      2.14816924945391     -0.00012002348132
N           2.11808314940451     -0.00002527989961     -0.00036226373716
O           2.72387695234489     -1.10771207139848      0.00040597823570
O           2.72391644246942      1.10763885175707      0.00056138155342
H           0.58439912932837     -2.14817284604861     -0.00044313878677
H          -1.94945738240393     -2.14986566585114     -0.00007967973278
*
