!PBE0 def2-SV(p) Opt Freq d3 TightSCF SlowConv RIJCOSX defgrid2
 
%pal
nprocs 4
end
 
%scf
MaxIter 1500
end
 
%maxcore 3000
 

 
* xyz 0 1
C    -0.8844933   -0.4515577   -0.0108556 
C    -2.1466617    0.1253267    0.0439145 
C    -2.2893586    1.5036424    0.0479884 
C    -1.1739948    2.3185366   -0.0069444 
C     0.0855488    1.7499638   -0.0621959 
C     0.2640816    0.3697103   -0.0598043 
C     1.5788891   -0.2557297   -0.1249882 
C     2.7489008    0.3310550    0.1167481 
C     4.0649434   -0.3648389    0.0307876 
H     3.9389580   -1.4051783   -0.2584540 
H     4.7044939    0.1307364   -0.6999087 
H     4.5757989   -0.3240151    0.9929473 
H     2.7986973    1.3725386    0.4049076 
H     1.5628251   -1.3077652   -0.3768768 
H     0.9522959    2.3898537   -0.1214522 
H    -1.2838294    3.3926740   -0.0109022 
H    -3.2790380    1.9338790    0.0907320 
H    -3.0312103   -0.4904730    0.0843048 
O    -0.6647023   -1.7996801   -0.0120349 
C    -1.7702208   -2.6719198    0.0263101 
H    -2.4203058   -2.5362112   -0.8441122 
H    -2.3542604   -2.5403658    0.9428574 
H    -1.3488359   -3.6759700    0.0087271
*
