!PBE0 freq aug-cc-pVTZ d3 TightSCF SlowConv RIJCOSX defgrid2

%pal
nprocs 12
end

%scf
MaxIter 1500
end

%maxcore 5000

!CPCM
%cpcm smd true
SMDsolvent "MeCN"
surfacetype gepol_ses
rsolv 2.19
end 

* xyz 1 2
C           0.86792821916493     -1.42164200801305     -0.00079271184932
C           2.09230129846287     -0.72181303187779      0.00054588506988
C           2.16533433637312      0.67875956877784     -0.00019020518462
C           1.02604495024516      1.44429591041406     -0.00112769923528
C          -0.22066724983368      0.76964820418379     -0.00145779094333
C          -0.24203849482019     -0.64370269093123     -0.00228441977934
O          -1.54743606554764     -1.08303827314357     -0.00244446930381
C          -2.30214321812613      0.00014748360974     -0.00008403586404
C          -1.54799116518266      1.17804332366886      0.00027163727839
H          -1.95187027107963      2.17778170465068      0.00292004998074
H          -3.37147047000033     -0.14984477743457      0.00234503298508
H           1.06407807985525      2.52517296304682     -0.00166185087399
H           3.13722347699561      1.15264669313453      0.00059802179644
H           3.01004135347746     -1.29562961357689      0.00320363065148
H           0.82972672001586     -2.50186485650921      0.00022952527172
*
