!PBE0 def2-SV(p) Opt Freq d3 TightSCF SlowConv RIJCOSX defgrid2
 
%pal
nprocs 2
end
 
%scf
MaxIter 1500
end
 
%maxcore 5000
 
* xyz 0 1
6       -3.603345500      2.127100000      0.189484500
6       -4.896432500      1.620882500      0.192600000
6       -2.480057000      1.280667000     -0.034563500
6       -2.711938500     -0.102266000     -0.307772500
6       -4.008755000     -0.614056500     -0.248682000
6       -5.106252000      0.241916000      0.006008000
6       -1.153021500      2.003766500      0.001634500
6        0.141630458      1.283157707      0.301786452
6        1.298048044      2.107759745      0.190559746
6        2.568846469      1.601337689      0.429135114
6        2.728094479      0.241072540      0.752926333
6        1.592346851     -0.590803395      0.899489162
6        0.309193431     -0.074427587      0.714832712
8       -1.190759500      3.220424000      0.001331500
1       -4.156734500     -1.697587500     -0.446430500
1       -6.122330500     -0.163940000      0.034073500
1       -3.424344500      3.203659000      0.356412500
1       -5.747982000      2.307520500      0.356607500
1       -1.896159500     -0.818423000     -0.667279000
1       -0.562462730     -0.759549277      0.997208513
1        3.730532564     -0.167182998      0.915575458
1        1.692522687     -1.655587233      1.201769915
1        1.162076505      3.168012467     -0.085697570
1        3.445134273      2.271746633      0.347249392
*
