!B3LYP freq aug-cc-pVTZ d3 TightSCF SlowConv RIJCOSX defgrid2

%pal
nprocs 12

end

%scf
MaxIter 1500
end

%maxcore 5000

!CPCM
%cpcm smd true
SMDsolvent "MeCN"
surfacetype gepol_ses
rsolv 2.19
end 

* xyz 1 2
C          -0.70414101117874     -1.06586457083984     -0.00260806626687
C          -1.29116664945740      0.22839872215819     -0.00043190243076
C          -0.47857844226411      1.40025735664464     -0.00091267341865
C           0.87467470263240      1.28187143682210     -0.00117472670670
C           1.47508892028644     -0.00940896253146     -0.00129381761902
C           0.65278982807208     -1.17439799770646     -0.00285317964364
H           1.12304666206757     -2.14594148801240     -0.00369605114466
C           2.86232124331321     -0.13915517399531      0.00067056689488
C           4.06678178854387     -0.25452490320904      0.00254746358011
H           5.12904472701308     -0.35314602108497      0.00379367181950
H           1.50644192412403      2.15670080793149     -0.00147772766816
H          -0.96599888720762      2.36392787713282     -0.00008997540498
O          -2.57982550646406      0.44240941292259      0.00218483618935
C          -3.52085734548594     -0.66374776683700      0.00202457193261
H          -4.49899393982929     -0.19784608862638     -0.00059278774009
H          -3.37944017608124     -1.26312459737882     -0.89398149811725
H          -3.38305256128898     -1.26056764325781      0.90046455364223
H          -1.32239067679526     -1.94835830013235     -0.00237125789790
*
