!PBE0 def2-SV(p) Opt Freq d3 TightSCF SlowConv RIJCOSX defgrid2
 
%pal
nprocs 4
end
 
%scf
MaxIter 1500
end
 
%maxcore 3000
 

 
* xyz 1 2
C    -1.1895544   -1.1115753   -0.0006760 
C     0.0134310   -1.7944379   -0.0008591 
C     1.2014825   -1.0850702   -0.0005453 
C     1.1999101    0.3478071    0.0009809 
C     2.4916970    1.0539790    0.0003452 
H     2.3721019    2.1337516    0.0009937 
H     3.0870723    0.7484611    0.8667230 
H     3.0853726    0.7494093   -0.8675414 
C    -0.0147520    1.0151492    0.0028540 
C    -1.2205273    0.3184601    0.0024399 
C    -2.5092213    1.0296200    0.0019985 
H    -2.5921564    1.6558464   -0.8926638 
H    -2.5558327    1.7363179    0.8360998 
H    -3.3577350    0.3524670    0.0455333 
H    -0.0288929    2.0947739    0.0046740 
H     2.1484628   -1.6045520   -0.0024529 
H     0.0250094   -2.8731766   -0.0021144 
H    -2.1235930   -1.6536058   -0.0026302
*
