23
Coordinates from ORCA-job cs_rporg_018_ox_opt_05 E -463.217284771382
  C          -0.33586887131186      0.86326290349335      0.00275975385528
  C          -1.60369240806671      0.30149112444294      0.00128495501917
  C          -1.75512191342163     -1.11775868949832      0.00072619271776
  C          -0.63448935719653     -1.93391616894448      0.00393994290950
  C           0.62783531805343     -1.38021404759853      0.00602565784888
  C           0.79500882314234      0.04916214103711      0.00397573350195
  C           2.08873509723352      0.65092524331811      0.00357066437085
  C           3.27546200958122     -0.01864301417899     -0.00254359396505
  C           4.59162538023309      0.64202609847884     -0.00322927701473
  H           5.16611682932617      0.31962411174294     -0.87853380820332
  H           5.17259064558549      0.30699856591939      0.86296984050660
  H           4.51905219066811      1.72745155310174      0.00466268324061
  H           3.28581316959379     -1.10126630981156     -0.00836906575839
  H           2.11321140360627      1.73434723837472      0.00640776542937
  H           1.49064209532812     -2.02640760768408      0.01002450556494
  H          -0.75669877471184     -3.00669209822086      0.00487677059878
  H          -2.73923743799183     -1.55892896120857     -0.00318364974669
  O          -2.63663949115467      1.13697726010298      0.00050172486190
  C          -3.98484758956115      0.62459720748230     -0.00340146610714
  H          -4.62248330680524      1.50205284406544     -0.00187029304885
  H          -4.16908785815216      0.03065617981517      0.89025271189061
  H          -4.16517027559859      0.03650103969865     -0.90163209598474
  H          -0.23559307837931      1.93908738607171      0.00202024751272
