!PBE0 freq aug-cc-pVTZ d3 TightSCF SlowConv RIJCOSX defgrid2

%pal
nprocs 12
end

%scf
MaxIter 1500
end

%maxcore 5000

!CPCM
%cpcm smd true
SMDsolvent "MeCN"
surfacetype gepol_ses
rsolv 2.19
end 

* xyz 0 1
C          -1.15272881913218     -1.23786565560577     -0.00060922348458
C          -2.50299561309501     -0.94640010600734     -0.00036404891800
C          -2.92692860542215      0.37726219019491      0.00022135378060
C          -1.99916216470682      1.40949918290633      0.00007290847418
C          -0.64451574431019      1.12548161251954     -0.00038634306224
C          -0.21627648959906     -0.20006212835383     -0.00045603409614
C           1.19758969990836     -0.59442779639650      0.00017884501165
O           1.62763132426212     -1.70134644612926     -0.00102226121388
Cl          2.37638672955140      0.77070815548780      0.00341463629377
H           0.07583031607941      1.93111372954968     -0.00087870737011
H          -2.33122213449188      2.43976678740262      0.00111425561217
H          -3.98612577895119      0.60362211720879      0.00096275318743
H          -3.22805235659775     -1.75023375960518     -0.00061963839529
H          -0.81010756349503     -2.26418388317177     -0.00113379581956
*
