!PBE0 freq def2-SV(p) d3 TightSCF SlowConv RIJCOSX defgrid2

%pal
nprocs 12
end

%scf
MaxIter 1500
end

%maxcore 5000

!CPCM
%cpcm smd true
SMDsolvent "MeCN"
surfacetype gepol_ses
rsolv 2.19
end 

* xyz 0 1
C           1.35660025059995     -0.00429043906810     -0.20822125844131
C           0.75630199151195      1.26236690367265     -0.15690478525367
C          -0.62405070775742      1.38498847344957     -0.06894244115111
C          -1.44537653715540      0.24860061472456     -0.03087542744127
C          -0.85031465344564     -1.01769650253269     -0.08354066475025
C           0.53762295598256     -1.13596509245376     -0.17084845201279
H           0.97880746361597     -2.13704462019350     -0.20969050550572
H          -1.45423378814272     -1.92678180005872     -0.05679971818784
O          -2.77157814018759      0.46621939216636      0.05561462271786
C          -3.63578530885167     -0.64096797035771      0.09904660400582
H          -4.65698015534507     -0.23662892642667      0.16770764191386
H          -3.55637196676559     -1.25825271633206     -0.81545669972425
H          -3.44268572059263     -1.27612623969987      0.98395627536633
H          -1.09066209887068      2.37311265598985     -0.02787483854366
H           1.37206244832312      2.16658240463226     -0.18626775546921
S           3.10977842659807     -0.23509273855890     -0.32013780221106
H           3.44196324048281      1.07954240104675     -0.30535509531173
*
