14
Coordinates from ORCA-job cs_rporg_075_red_opt_08 E -287.756442687745
  C          -0.23023851584578     -1.20626774573684      0.00368362424169
  C           1.15935889031916     -1.19988338142918      0.00056665259456
  C           1.86884246493981     -0.00003004937572      0.00041279325657
  C           1.15938833853710      1.19984079460543      0.00056461724926
  C          -0.23020870927182      1.20625854766754      0.00368195061778
  C          -0.94671697255823      0.00000416158719      0.00669594249518
  N          -2.33632047017907      0.00002071690809      0.07592912345347
  H          -2.78443301990863      0.83646042410644     -0.27135687150830
  H          -2.78445240256524     -0.83640679668637     -0.27136105982421
  H          -0.77082853423124      2.14648768570440      0.00276185515455
  H           1.69120353968672      2.14449375861552     -0.00444463272981
  H           2.95170624718390     -0.00004427447730     -0.00333035625996
  H           1.69114988647899     -2.14455066922790     -0.00444055849781
  H          -0.77088114258567     -2.14648417226131      0.00276061975702
