!PBE0 def2-SV(p) Opt Freq d3 TightSCF SlowConv RIJCOSX defgrid2
 
%pal
nprocs 4
end
 
%scf
MaxIter 1500
end
 
%maxcore 3000
 

 
* xyz 0 1
C     0.4209184    1.0823877   -0.0000487 
C    -0.9362526    1.3090402   -0.0000414 
C    -1.8392663    0.2427007   -0.0000120 
C    -1.3425803   -1.0560561   -0.0000188 
C     0.0235811   -1.2705830   -0.0000158 
C     0.9374628   -0.2173782   -0.0000195 
C     2.3619372   -0.5169736    0.0000810 
C     3.3688931    0.3543318   -0.0000950 
C     4.8091706   -0.0314200    0.0001128 
H     5.3075788    0.3785519    0.8787239 
H     5.3076508    0.3778099   -0.8788037 
H     4.9262001   -1.1123594    0.0005723 
H     3.1806022    1.4190907   -0.0004033 
H     2.5976951   -1.5752817    0.0003476 
H     0.3900829   -2.2877433   -0.0000015 
H    -2.0070232   -1.9058344   -0.0000185 
O    -3.1613770    0.5794781    0.0000577 
C    -4.1209727   -0.4540502   -0.0001139 
H    -4.0347355   -1.0801729    0.8937041 
H    -4.0346937   -1.0799097   -0.8941130 
H    -5.0884777    0.0451497   -0.0000552 
H    -1.3323783    2.3130152   -0.0000408 
H     1.0897882    1.9287022   -0.0000546
*
