!B3LYP freq aug-cc-pVTZ d3 TightSCF SlowConv RIJCOSX defgrid2

%pal
nprocs 12

end

%scf
MaxIter 1500
end

%maxcore 5000

!CPCM
%cpcm smd true
SMDsolvent "MeCN"
surfacetype gepol_ses
rsolv 2.19
end 

* xyz 0 1
  C           1.35821049213431     -0.62327790711215      0.83554893418770
  C           2.60315178052265     -1.23804770896613      0.88771912789819
  C           3.67667188589932     -0.72639502443761      0.16489585397957
  C           3.49870505307558      0.41195476534920     -0.61444135888492
  C           2.25625042640762      1.03191097375520     -0.68033624321242
  C           1.19274942542265      0.50875628212645      0.04407094302126
  O          -0.00001144786084      1.20167851872690      0.00045448294005
  C          -1.19270996016932      0.50873340398764     -0.04359375759666
  C          -2.25654139632050      1.03200234917770      0.68024362731457
  C          -3.49898247753180      0.41209882047716      0.61384242763151
  C          -3.67666267777456     -0.72636093489590     -0.16539747826554
  C          -2.60285487125428     -1.23812940984238     -0.88769342104579
  C          -1.35791705188946     -0.62341297496121     -0.83496048345489
  H          -0.52671130702580     -1.01764912206328     -1.40157491228212
  H          -2.73280014068850     -2.11864504503846     -1.50236850003124
  H          -4.64273039341844     -1.20963023124312     -0.21184255883912
  H          -4.32680379174802      0.81916508629302      1.17846868076635
  H          -2.10348212548609      1.91483606072708      1.28526558778028
  H           2.10294534027966      1.91470692328312     -1.28534922338916
  H           4.32629997450633      0.81889818165728     -1.17950531495171
  H           4.64274946676829     -1.20968205774686      0.21101303831457
  H           2.73335328092413     -2.11853494829120      1.50238998823907
  H           0.52716881522715     -1.01722020096243      1.40261025988044
*
