!PBE0 freq def2-SV(p) d3 TightSCF SlowConv RIJCOSX defgrid2

%pal
nprocs 12
end

%scf
MaxIter 1500
end

%maxcore 5000

!CPCM
%cpcm smd true
SMDsolvent "MeCN"
surfacetype gepol_ses
rsolv 2.19
end 

* xyz 0 1
C           0.94830834594704     -1.28124384849405     -0.00020945252784
C           2.32029535851131     -1.03135366464973     -0.00028871267651
C           2.79148866727895      0.28136322484745     -0.00006877066584
C           1.88295437495823      1.34514036942634      0.00029423549943
C           0.51451848804171      1.09905951956838      0.00032347235064
C           0.03043989310606     -0.22075314252002      0.00002551195402
C          -1.40163792639989     -0.52201927942399      0.00012397253272
N          -2.27963755307826      0.40561113504313     -0.00085929065235
O          -3.55260412242595     -0.07866643372676     -0.00029269476416
H          -4.11663410613260      0.71536957570321     -0.00045695876578
H          -1.71349371650894     -1.57813323056317      0.00147349643070
H          -0.19812455722450      1.92823327407152      0.00065946582163
H           2.24875387825095      2.37647316687378      0.00009060896045
H           3.86767858997433      0.47894331742636     -0.00030874313980
H           3.02496371531977     -1.86840289703672     -0.00044786859415
H           0.58042507038180     -2.31221938654574      0.00014912823683
*
