!B3LYP aug-cc-pVTZ d3 TightSCF SlowConv RIJCOSX defgrid2
 
%pal
nprocs 4
end
 
%scf
MaxIter 1500
end
 
%maxcore 3000
 
!CPCM
%cpcm smd true
SMDsolvent "MeCN"
surfacetype gepol_ses
rsolv 2.19
end 
 
* xyz 1 2
C          -1.18929710111744     -1.09285531809476     -0.10819644925615
C           0.00589173329489     -1.79822529332208     -0.13401141651239
C           1.19808208156691     -1.09105158000585     -0.06434654491920
C           1.21365138858984      0.35785054897918      0.03424223925553
C           2.51775471479426      1.05048436689676      0.10640427638312
H           2.41427085604479      2.14280676868630      0.17575377847974
H           3.09603271561737      0.68522468132195      0.97881748737636
H           3.13366664954396      0.79986441621953     -0.78044888567292
C          -0.00007800896972      1.04312717812580      0.05823770417539
C          -1.21092205755184      0.35593020163616     -0.01041203166499
C          -2.51780389192698      1.04678727365115      0.01197629521183
H          -3.09403194335214      0.80285450596818     -0.90319738383305
H          -2.41838300212946      2.13863620693826      0.09339400927998
H          -3.13338924600238      0.67411631081689      0.85502734287022
H          -0.00212028703487      2.13377489791986      0.13228993338047
H           2.15561414738440     -1.62182776088860     -0.08279661789994
H           0.00790773530576     -2.88854491189358     -0.20783219258290
H          -2.14457188405735     -1.62532769295516     -0.16174234407112
*
