!r2SCAN aug-cc-pVTZ d3 TightSCF SlowConv RIJCOSX defgrid2
 
%pal
nprocs 4
end
 
%scf
MaxIter 1500
end
 
%maxcore 3000
 
!CPCM
%cpcm smd true
SMDsolvent "MeCN"
surfacetype gepol_ses
rsolv 2.19
end 
 
* xyz 0 1
C           1.11186063431218     -1.27161750848334      0.03529687525431
C           0.40062560849469      0.06050080568744      0.01645658990368
C           1.09132291899843      1.22728525455366     -0.01481187748794
C           2.59071448413322      1.31213757575100     -0.04259953894168
C           3.24159815994134     -0.01937627947586     -0.39841325306825
C           2.58911379103733     -1.14676967388403      0.38832716012891
H           3.09748891391144     -2.10891626969463      0.20096696093946
H           2.69042588645759     -0.93817776710244      1.47032103152836
H           4.32799261089383      0.01691698871123     -0.20339895848800
H           3.11607401581807     -0.21456505742642     -1.48081651387058
H           2.90797745861562      2.08798412644276     -0.76484604682040
H           2.97758486033447      1.65547047948827      0.94073256876005
H           0.54718288972158      2.17640255493605     -0.01902463744638
N          -0.97616721213332      0.00495853491955      0.02697160227337
C          -1.78872482665766      1.19747534852265      0.05715418513192
C          -3.21005262050385      0.66964169739812      0.23596327149758
C          -3.15237336592481     -0.69599286303147     -0.44293484397097
C          -1.76610643119617     -1.20659042879325     -0.05714971676551
H          -1.36563278919925     -1.91141795135958     -0.80640934529533
H          -1.80537787661672     -1.75015520174994      0.91214209774396
H          -3.95970487602702     -1.37895631866201     -0.13218330548580
H          -3.21412175894358     -0.57519572273874     -1.53925950514829
H          -3.97216674301970      1.34137885928184     -0.19076791065005
H          -3.43419513408562      0.54752707903326      1.31073431906276
H          -1.48163666786281      1.86730753786198      0.88332008233158
H          -1.67922253541657      1.78041926532680     -0.88331716928986
H           0.61356353671055     -1.94715361756419      0.75320195239957
H           1.00544556820675     -1.75500544794871     -0.95629237422648
*
