17
Coordinates from ORCA-job cs_rporg_067_ox_opt_01 E -326.025776111502
  C          -0.67908643386725      1.23607676469241      0.05037688455432
  C           0.69063537473082      1.22239505984825      0.03433122006490
  C           1.41935940969442      0.00089697821530      0.02361032838992
  C           2.90264582314279      0.00023187234458     -0.03154544602423
  H           3.33275857806013      0.90982454248379      0.41704425889491
  H           3.23040482362577     -0.02388819542517     -1.09174805024851
  H           3.33188322628672     -0.89033444842890      0.45524306190015
  C           0.69116135048355     -1.22128045675289      0.03322526814773
  C          -0.67837863172589     -1.23584655805266      0.04927182441236
  C          -1.40125371058004     -0.00006366269893      0.05776120704274
  N          -2.73211521344069     -0.00040267889955      0.07439012831924
  H          -3.26281790606968     -0.86988933466929      0.08068697932374
  H          -3.26324263121073      0.86881860998728      0.08143282938743
  H          -1.22754000431610     -2.18185307095538      0.05799598423108
  H           1.24009901564024     -2.16715763912366      0.03003003714593
  H           1.23900198016691      2.16857067789729      0.03198987167601
  H          -1.22875875062097      2.18177673953752      0.05992551278228
