!PBE0 def2-SV(p) Opt Freq d3 TightSCF SlowConv RIJCOSX defgrid2

%pal
nprocs 15
end

%scf
MaxIter 1500
end

%maxcore 3500

 

* xyz 0 1
C       -0.732160608     -1.291623195     -1.661890015
C       -0.792828387     -1.333318251      2.562615786
C        0.160299413     -0.678263464      3.347467158
C        0.065726999     -0.743260113      4.731544090
C       -0.978864165     -1.461174788      5.304178757
C       -1.889009513     -2.086689084      4.458057262
N       -1.804062846     -2.028307911      3.121030400
H        0.804889995     -0.235256620      5.357380294
H       -1.086623813     -1.535234607      6.389744429
H       -2.727217774     -2.662763282      4.862187961
C       -0.740637806     -1.297449312      1.088931368
C        0.264464924     -0.606673791      0.406187817
C        0.268094697     -0.604179159     -0.982631125
C       -1.698771103     -1.955944214     -0.913628019
N       -1.708664721     -1.962743787      0.427312325
H        1.048779105     -0.067639310     -1.529218082
H       -0.762774045     -1.312662858     -2.754670872
H       -2.505317479     -2.510258193     -1.403520998
C        1.204991735      0.039720729      2.666785686
C        1.257182160      0.075589567      1.193105738
H        1.958874646      0.557840755      3.240904310
H        2.048875802      0.619695725      0.699577962
*
