!PBE0 freq def2-SV(p) d3 TightSCF SlowConv RIJCOSX defgrid2

%pal
nprocs 12
end

%scf
MaxIter 1500
end

%maxcore 5000

!CPCM
%cpcm smd true
SMDsolvent "MeCN"
surfacetype gepol_ses
rsolv 2.19
end 

* xyz -1 2
C          -0.01221579846847      1.21223821219338     -0.00070473497585
C           1.37473669349914      1.22240004622488      0.00006954288085
C           2.07974870277334      0.01346663465154      0.00010273387026
C           1.40052255304598     -1.21355321488188     -0.00089972799557
C           0.01781946359796     -1.22792183217975     -0.00130607544397
C          -0.75873012358652     -0.01711945361192     -0.00086089799626
C          -2.18960369477796     -0.09754113204939      0.00109675117505
O          -2.81146038166459     -1.19653684315087      0.00535540121840
C          -2.98235576898984      1.20133104065092     -0.00061777952733
H          -2.77942221850047      1.83372401173297      0.88698015156589
H          -2.77483807731627      1.83425931886208     -0.88675410514957
H          -4.05642116825148      0.95065586354349     -0.00336414597240
H          -0.53063304251638     -2.17426863452286     -0.00183345877584
H           1.97883825107771     -2.14413568031901     -0.00122647922361
F           3.43714742123303      0.02800792993213      0.00135333022466
H           1.93085454489297      2.16601966709310      0.00099136323901
H          -0.53959555604816      2.17110386583118     -0.00009096911371
*
