!TPSSh freq aug-cc-pVTZ d3 TightSCF SlowConv RIJCOSX defgrid2

%pal
nprocs 12
end

%scf
MaxIter 1500
end

%maxcore 5000

!CPCM
%cpcm smd true
SMDsolvent "MeCN"
surfacetype gepol_ses
rsolv 2.19
end 

* xyz -1 2
C           0.68355979744343     -1.23233805491240     -0.00270902478089
C          -0.69027636142312     -1.22700346039737     -0.00127801157050
C          -1.38829174097614      0.00351904541520     -0.00002480592004
C          -0.66167707504376      1.21510153723095     -0.00130961424499
C           0.71510097319947      1.18854910056856     -0.00277614509448
C           1.43167710166750     -0.03062630314336     -0.00330347160683
C           2.89057677766921     -0.08320705411670     -0.00443115368703
O           3.50306504638823     -1.16263393936499     -0.00467192793704
C           3.66532757826343      1.21781647187012     -0.00170293630889
H           3.42572370194753      1.81811130341291      0.88040204386018
H           4.73166740522208      0.99742394419405     -0.00356570147795
H           3.42372881738100      1.82307373995138     -0.87975540677306
H           1.25146369262411      2.12918927616923     -0.00388512601506
H          -1.20385304163826      2.14959574039076     -0.00093010083165
N          -2.78123074779986      0.02004777993450      0.00273113770264
O          -3.39196776930306      1.14143013058875      0.00469279893728
O          -3.41913043588465     -1.08615088650624      0.00468213238809
H          -1.25653714041547     -2.14739434142382     -0.00087418482233
H           1.22203892067832     -2.17195382986154     -0.00337600181746
*
