!TPSSh freq aug-cc-pVTZ d3 TightSCF SlowConv RIJCOSX defgrid2

%pal
nprocs 12
end

%scf
MaxIter 1500
end

%maxcore 5000

!CPCM
%cpcm smd true
SMDsolvent "MeCN"
surfacetype gepol_ses
rsolv 2.19
end 

* xyz 0 1
C           0.89951819636883     -1.41741453495000     -0.00035995304677
C           2.11575985075161     -0.74222548498087      0.00002604213887
C           2.17240672694708      0.66086968716566     -0.00008465831586
C           1.01832621119051      1.43248048557171     -0.00044960793270
C          -0.21838570649764      0.77598483777759     -0.00066682308037
C          -0.23799655980913     -0.62747935009571     -0.00073599317581
O          -1.53066025999417     -1.08179370180256     -0.00054149492914
C          -2.32491654509518      0.04034890848086     -0.00006746206541
C          -1.59980403662339      1.18097268053085     -0.00024625202854
H          -1.99372101022256      2.18476724262282      0.00091699461199
H          -3.38536007700665     -0.15049646196641      0.00111899221035
H           1.07385929408536      2.51419255586280     -0.00045532324324
H           3.13994203917291      1.14807965440578      0.00056711388835
H           3.03726779851783     -1.31117419751031      0.00111839809117
H           0.84281417821458     -2.49813602111219     -0.00005517312290
*
