!TPSSh aug-cc-pVTZ d3 TightSCF SlowConv RIJCOSX defgrid2
 
%pal
nprocs 4
end
 
%scf
MaxIter 1500
end
 
%maxcore 3000
 
!CPCM
%cpcm smd true
SMDsolvent "MeCN"
surfacetype gepol_ses
rsolv 2.19
end 
 
* xyz 0 1
C          -1.45296729722658     -1.28151002156026      0.14194546330159
C          -0.60306064093871     -0.04446072545809      0.33193281816932
C          -1.12567582222179      1.18572814043815      0.12630733698000
C          -2.55837598067552      1.44742458580996     -0.24068448507496
C          -3.28245282065203      0.19560476706937     -0.72004405890606
C          -2.94627665247128     -0.98032771771694      0.18458848750905
H          -3.24213594686381     -0.73932071348069      1.22299729825620
H          -3.51449794303560     -1.88061999821498     -0.10780941455212
H          -2.96673003571617     -0.04268032662380     -1.75366325316112
H          -4.37226581908345      0.36951687899438     -0.75213967938313
H          -3.09908269921816      1.87422825597419      0.63030428128422
H          -2.60322712915400      2.23069777526909     -1.02025270689355
H          -0.49994736161941      2.07353459912717      0.25424693160649
N           0.69303529191099     -0.28438264709477      0.79958397475949
C           1.57818723018607      0.82467461252518      1.08644856048943
H           1.00739506236315      1.66619965765170      1.50706427051622
C           2.37028080978361      1.23291703973064     -0.15041034302315
H           3.11077065191675      2.01322480282712      0.09126019237819
H           1.68417673001968      1.63130127074136     -0.92725467919408
O           3.09036409417407      0.13568205210303     -0.65709465576006
C           2.25560936007911     -0.95058613299193     -0.96380125980268
H           1.55178445834774     -0.67753645106666     -1.78072161009415
C           1.45943271566799     -1.39404343918770      0.25851152105089
H           2.16510802761640     -1.74198715640152      1.03622997878760
H           0.80313522562159     -2.23935561078539      0.00674701884856
H           2.90949410693522     -1.76130630349583     -1.32634069968529
H           2.29502525894536      0.49140375143543      1.86065453402124
H          -1.20950686050662     -1.76150886737077     -0.82651158365816
H          -1.19559941418460     -2.01612497824744      0.92558666123002
*
