14
Coordinates from ORCA-job cs_rporg_162_red_opt_08 E -417.023629620756
  C          -1.21593003665610     -0.03836859219626      0.00000413930932
  C          -1.21902637043602      1.41419822207799     -0.00019854862316
  C           0.00004487667436      2.08018396521126      0.00000318854226
  C           1.21909047160726      1.41414728489572      0.00018919886670
  C           1.21592647644970     -0.03842222570279      0.00001138777514
  C          -0.00001763431116     -0.72601449830352      0.00002195046287
  H          -0.00004164590931     -1.80917454670537      0.00003774717494
  C           2.41707559349581     -0.76454070119494     -0.00015963404855
  N           3.43020477173122     -1.34867864153830     -0.00030953385977
  H           2.15636937792796      1.95340266352403      0.00082418754433
  H           0.00006524343719      3.16549481944437      0.00001086648792
  H          -2.15628114987290      1.95349078405268     -0.00085809167142
  C          -2.41711424083411     -0.76442783757766      0.00016782908860
  N          -3.43027483330392     -1.34851099598722      0.00030621295081
