!PBE0 def2-SV(p) Opt Freq d3 TightSCF SlowConv RIJCOSX defgrid2
 
%pal
nprocs 4
end
 
%scf
MaxIter 1500
end
 
%maxcore 3000
 

 
* xyz 1 2
C    -0.3311531    0.8043001   -0.0001791 
C    -1.6163068    0.2577930   -0.0000218 
C    -1.7656827   -1.1533754    0.0000720 
C    -0.6436511   -1.9654869    0.0000256 
C     0.6253806   -1.4202409   -0.0000780 
C     0.8018053   -0.0055302   -0.0001689 
C     2.0963451    0.6116125   -0.0002575 
C     3.3016486   -0.0197148    0.0001849 
C     4.5823563    0.6921738    0.0001044 
H     5.1751988    0.3851188   -0.8661308 
H     5.1748184    0.3859800    0.8669067 
H     4.4621581    1.7722238   -0.0004505 
H     3.3641278   -1.0991446    0.0006851 
H     2.0921804    1.6945149   -0.0006559 
H     1.4811271   -2.0745420   -0.0001459 
H    -0.7678683   -3.0371591    0.0000757 
H    -2.7474154   -1.6000463    0.0001631 
O    -2.6241856    1.1227147    0.0000372 
C    -3.9701241    0.6879264    0.0002854 
H    -4.5668963    1.5979217    0.0003712 
H    -4.1976147    0.1026133    0.8947735 
H    -4.1979296    0.1025780   -0.8940999 
H    -0.2411562    1.8791032   -0.0002606
*
