!B3LYP aug-cc-pVTZ d3 TightSCF SlowConv RIJCOSX defgrid2
 
%pal
nprocs 4
end
 
%scf
MaxIter 1500
end
 
%maxcore 3000
 
!CPCM
%cpcm smd true
SMDsolvent "MeCN"
surfacetype gepol_ses
rsolv 2.19
end 
 
* xyz -1 2
C          -1.22535307927293     -0.03882807002799     -0.00002255469277
C          -1.22206264378164      1.41582015720061     -0.00002423880206
C           0.00004637420421      2.08121905033007     -0.00000415463824
C           1.22212161683371      1.41575862792076      0.00002170232485
C           1.22534433396412     -0.03888819251674      0.00002507087618
C          -0.00002135567409     -0.71608207495025      0.00000157424078
H          -0.00004774645346     -1.81053735349218      0.00000261550832
C           2.43402384370652     -0.77080587803239      0.00007579493229
N           3.44413671726320     -1.36247120639636      0.00011250089172
H           2.16848850432676      1.96074544120089      0.00003301965359
H           0.00007494156619      3.17901522614598     -0.00000842096167
H          -2.16840192148197      1.96085605610510     -0.00003754989011
C          -2.43406244869294     -0.77069683887805     -0.00005052688718
N          -3.44419623650770     -1.36232524460946     -0.00007393255569
*
