!r2SCANh aug-cc-pVTZ d3 TightSCF SlowConv RIJCOSX defgrid2
 
%pal
nprocs 4
end
 
%scf
MaxIter 1500
end
 
%maxcore 3000
 
!CPCM
%cpcm smd true
SMDsolvent "MeCN"
surfacetype gepol_ses
rsolv 2.19
end 
 
* xyz 1 2
C          -2.34552987536684     -1.21989010437598      0.39037314372658
C          -3.61895068813073     -0.68175269434440      0.38389142559167
C          -3.82314603181153      0.63223129507657     -0.05997707610989
C          -2.74291757400101      1.40018818267067     -0.51535069014080
C          -1.45991639594185      0.88100768107606     -0.50933331005631
C          -1.24682427758412     -0.43286197652402     -0.02997852330470
N          -0.00000583482740     -1.01085724580805     -0.00004772669115
C           1.24681241286631     -0.43287174597834      0.02990526482063
C           1.45990511527645      0.88100588629127      0.50923458111131
C           2.74292315008343      1.40015182716249      0.51533074845338
C           3.82316479830717      0.63215150787923      0.06005371973868
C           3.61896072254659     -0.68183818250133     -0.38379986432228
C           2.34552582381883     -1.21993769489926     -0.39035690905535
H           2.17816875399825     -2.24126262631785     -0.74631287979897
H           4.46447935418444     -1.28373988515481     -0.72627658434262
H           4.83264524497399      1.05187382862867      0.07202071830295
H           2.91442484546385      2.40736518053646      0.90385483105346
H           0.63238245735310      1.45557255022259      0.92936286739960
H          -0.00000303273582     -2.03154086007956     -0.00006285746572
H          -0.63240635676261      1.45553755141713     -0.92953302648471
H          -2.91442477275671      2.40739802155151     -0.90387838458025
H          -4.83260942910992      1.05198735407979     -0.07187345817988
H          -4.46446345632637     -1.28362150345028      0.72644056993610
H          -2.17818095351749     -2.24120514715858      0.74635382039827
*
