!PBE0 def2-SV(p) Opt Freq d3 TightSCF SlowConv RIJCOSX defgrid2
 
%pal
nprocs 4
end
 
%scf
MaxIter 1500
end
 
%maxcore 3000
 

 
* xyz 0 1
C    -0.0251620    1.2035069    0.0002541 
C     1.3571638    1.2204380    0.0002504 
C     2.0407555    0.0168677   -0.0000113 
C     1.3862882   -1.2027243   -0.0002475 
C     0.0058863   -1.2038131   -0.0002153 
C    -0.7173524   -0.0084090    0.0000249 
C    -2.2027922   -0.0960281    0.0000450 
O    -2.7672365   -1.1739338    0.0004298 
C    -2.9717855    1.1974171   -0.0004955 
H    -2.7221071    1.7791231    0.8837591 
H    -2.7214653    1.7788271   -0.8847590 
H    -4.0370555    0.9806989   -0.0008150 
H    -0.5417571   -2.1341378   -0.0003821 
H     1.9531605   -2.1198784   -0.0004458 
F     3.3943302    0.0347721   -0.0000360 
H     1.9078419    2.1475898    0.0004431 
H    -0.5543447    2.1417759    0.0004747
*
