17
Coordinates from ORCA-job cs_rporg_074_ox_opt_01 E -251.124503773768
  C          -1.44785730295075      0.00004383668014      0.19466020963487
  C          -0.70463361625558     -1.25916288948137     -0.22052956548119
  C           0.75402143901141     -1.23290095960195      0.33947310722511
  N           1.35243621618336     -0.00003237928940     -0.05272629159437
  H           2.03239855808840     -0.00001354242890     -0.81929831940591
  C           0.75406824525088      1.23284300442693      0.33954722989484
  C          -0.70453653205886      1.25917936755808     -0.22058410201994
  H          -1.17735315978030      2.17530279259209      0.17075301961950
  H          -0.65902932856967      1.35407679956949     -1.31943227945387
  H           1.35320797568110      2.07738723598631     -0.02945728358028
  H           0.70381655246538      1.26167123212667      1.44376020833185
  H           1.35302530838177     -2.07746967992292     -0.02968877997992
  H           0.70390247903722     -1.26179946828858      1.44369537598949
  H          -1.17752329445998     -2.17518232566056      0.17094554694672
  H          -0.65911553793050     -1.35406143771193     -1.31937325462627
  H          -2.44852309487375      0.00006008079951     -0.27520329299314
  H          -1.61728600722014      0.00008813264640      1.28682627149251
