!PBE0 def2-SV(p) Opt Freq d3 TightSCF SlowConv RIJCOSX defgrid2
 
%pal
nprocs 4
end
 
%scf
MaxIter 1500
end
 
%maxcore 3000
 

 
* xyz 1 2
C    -1.4199426    0.0000427    0.2042093 
C    -0.6891508   -1.2536371   -0.2299262 
C     0.7665156   -1.2019124    0.3656055 
N     1.3652849   -0.0000436   -0.0487363 
H     1.8625893   -0.0000622   -0.9345500 
C     0.7665896    1.2018651    0.3655964 
C    -0.6890745    1.2536755   -0.2299335 
H    -1.1687741    2.1559150    0.1467216 
H    -0.6168129    1.3127211   -1.3164062 
H     1.3298320    2.0663586    0.0130253 
H     0.6743777    1.2219672    1.4556348 
H     1.3297049   -2.0664433    0.0130412 
H     0.6743015   -1.2220007    1.4556439 
H    -1.1689060   -2.1558455    0.1467325 
H    -0.6168914   -1.3126925   -1.3163985 
H    -2.4090017    0.0000714   -0.2710704 
H    -1.5796226    0.0000505    1.2841784
*
