!PBE0 def2-SV(p) Opt Freq d3 TightSCF SlowConv RIJCOSX defgrid2
 
%pal
nprocs 4
end
 
%scf
MaxIter 1500
end
 
%maxcore 3000
 

 
* xyz 0 1
C    -2.3499168   -1.1865306    0.4222736 
C    -3.6185996   -0.6428199    0.3974103 
C    -3.8197277    0.6448377   -0.0732580 
C    -2.7377844    1.3727362   -0.5405921 
C    -1.4645844    0.8358744   -0.5242894 
C    -1.2490981   -0.4480030   -0.0205935 
N    -0.0000030   -1.0432030   -0.0000137 
C     1.2490939   -0.4480122    0.0205693 
C     1.4645799    0.8358701    0.5242536 
C     2.7377842    1.3727196    0.5405848 
C     3.8197345    0.6448029    0.0732932 
C     3.6186055   -0.6428565   -0.3973679 
C     2.3499175   -1.1865537   -0.4222637 
H     2.1992371   -2.1927026   -0.7883102 
H     4.4561847   -1.2273472   -0.7496018 
H     4.8110858    1.0717450    0.0870960 
H     2.8867498    2.3679477    0.9340158 
H     0.6378008    1.3997729    0.9272124 
H    -0.0000059   -2.0527341   -0.0000452 
H    -0.6378114    1.3997636   -0.9272802 
H    -2.8867521    2.3679612   -0.9340302 
H    -4.8110729    1.0717947   -0.0870285 
H    -4.4561737   -1.2272950    0.7496822 
H    -2.1992344   -2.1926770    0.7883253
*
