!r2SCAN aug-cc-pVTZ d3 TightSCF SlowConv RIJCOSX defgrid2
 
%pal
nprocs 4
end
 
%scf
MaxIter 1500
end
 
%maxcore 3000
 
!CPCM
%cpcm smd true
SMDsolvent "MeCN"
surfacetype gepol_ses
rsolv 2.19
end 
 
* xyz 0 1
N           0.15975924296332      0.12445058338132      0.31604288059979
C          -1.19113288858807     -0.03866597413313      0.81654672996346
C          -2.31404669003534     -0.01392479742617     -0.22115980972317
H          -3.29712795220661     -0.11050189519336      0.27216270478690
H          -2.22374427381768     -0.84298980217516     -0.94495572722258
H          -2.31766293194652      0.93130971057126     -0.79241152719390
H          -1.24118777155842     -0.98367549326804      1.38531777446702
H          -1.36414427314090      0.76090167006913      1.55962872548440
C           0.62547089775175     -0.92869162394065     -0.56188129632475
C           0.59510137492734     -2.31310993961179      0.06527507131526
H          -0.43217334595978     -2.68538495815961      0.21937250172711
H           1.11073003856311     -3.03735318800821     -0.58821336851619
H           1.10594756855008     -2.30061285180890      1.04369021631712
H           0.06636480368987     -0.94738167933480     -1.52902550894480
H           1.66989109901219     -0.69687695874228     -0.82974302531472
C           0.44663628376999      1.45259534411955     -0.18717965378079
C           1.91168679391593      1.84575888559843     -0.05684387193733
H           2.57178979071434      1.21847816004489     -0.68008856196741
H           2.23976832497324      1.74559120055302      0.99176343824238
H           2.05890339514312      2.89253491311342     -0.37523787624847
H           0.12405895964874      1.58040814853664     -1.24813910560320
H          -0.15649294636972      2.16687674581443      0.40066148987389
*
