!COSMORS(Acetonitrile)
 
%pal
nprocs 20
end
 

 
%maxcore 3000
 

 
* xyz 0 1
C          -0.32048925823531     -1.08595168044653      0.00000936001316
C           0.99134202132746     -0.71584755612509      0.00000868106802
C           0.99130010917711      0.71590356660469     -0.00000127622817
C          -0.32055285170877      1.08593010296315      0.00001410652456
O          -1.11730139846665     -0.00003401203653      0.00002911176710
H          -0.82672168713073      2.04926041846335      0.00001957189355
H           1.85496968086204      1.37963412608217     -0.00001317553983
H           1.85505107384009     -1.37952667121287      0.00000466755780
H          -0.82660178966524     -2.04931169429235      0.00001155294381
*
