!PBE0 def2-SV(p) Opt Freq d3 TightSCF SlowConv RIJCOSX defgrid2
 
%pal
nprocs 4
end
 
%scf
MaxIter 1500
end
 
%maxcore 3000
 

 
* xyz 0 1
C     2.4154325   -0.7023326   -0.0000190 
C     2.4154446    0.7022982   -0.0000236 
C     1.2353831    1.3924660   -0.0000120 
C     0.0000073    0.7101183   -0.0000000 
C    -1.2353581    1.3924858   -0.0000014 
C    -2.4154290    0.7023351    0.0000055 
C    -2.4154402   -0.7022965    0.0000403 
C    -1.2353799   -1.3924640    0.0000311 
C    -0.0000042   -0.7101154    0.0000055 
C     1.2353611   -1.3924824   -0.0000103 
H     1.2302302   -2.4735109    0.0000138 
H    -1.2302593   -2.4734915   -0.0000240 
H    -3.3573009   -1.2316357   -0.0000548 
H    -3.3572810    1.2316905   -0.0000255 
H    -1.2302251    2.4735139    0.0000358 
H     1.2302636    2.4734946    0.0000110 
H     3.3573041    1.2316393    0.0000595 
H     3.3572825   -1.2316906    0.0000445
*
