!COSMORS(Acetonitrile)
 
%pal
nprocs 20
end
 

 
%maxcore 3000
 

 
* xyz 0 1
C           1.25000164855842     -1.41071448361037     -0.00000168415599
C           2.42472534447790     -0.69479139615512     -0.00000685047100
C           2.39854270226079      0.72067524520134     -0.00000877481015
C           1.20117735810590      1.39751150319993     -0.00000445095683
C          -0.02745588139686      0.68852480495358      0.00000564240260
N          -1.18625775877000      1.39381645036295      0.00001070560090
C          -2.31490188933646      0.73049306279294      0.00001689560908
C          -2.40570196692451     -0.68397826108981      0.00001755935062
C          -1.24368635715401     -1.41618109472248      0.00000969922177
C           0.00094011374072     -0.74022051327369      0.00000330710167
H          -1.26232776653674     -2.51106064954577      0.00000897425095
H          -3.38563440939795     -1.16889742637107      0.00002394159015
H          -3.23552246654660      1.32983924434354      0.00002054423920
H           1.15201317629262      2.48898402488494     -0.00000554947415
H           3.34113721025286      1.27611845570769     -0.00001383228755
H           3.38561855542436     -1.21756928095046     -0.00000963669760
H           1.26320168694954     -2.50529278572813     -0.00000049051368
*
