!B3LYP aug-cc-pVTZ d3 TightSCF SlowConv RIJCOSX defgrid2

%pal
nprocs 15
end

%scf
MaxIter 1500
end

%maxcore 3500

!CPCM
%cpcm smd true
SMDsolvent "WATER"
surfacetype gepol_ses
rsolv 1.40
end

* xyz 0 1
C          -0.00000020978988      0.00000073694249     -0.05069100410522
C          -1.20906788297771     -0.37099775736022      0.72498240348112
C           1.20906839531154      0.37099639744085      0.72498233629225
H          -2.08965714718270     -0.64109787483542      0.13413739306601
H           2.08965862753959      0.64109516807399      0.13413744999163
C          -1.20906829311347     -0.37099671339690      2.06767561532039
C           1.20906814538816      0.37099731197670      2.06767588420582
H          -2.08965863090342     -0.64109537543156      2.65852032753444
H           2.08965866999056      0.64109660483906      2.65852006555801
C          -0.00000017070001      0.00000032151215      2.84334909378969
O          -0.00000037912842     -0.00000048181393      4.05737768473263
O          -0.00000112443423      0.00000166205280     -1.26471924986679
*
