!PBE0 freq aug-cc-pVTZ d3 TightSCF SlowConv RIJCOSX defgrid2

%pal
nprocs 12
end

%scf
MaxIter 1500
end

%maxcore 5000

!CPCM
%cpcm smd true
SMDsolvent "MeCN"
surfacetype gepol_ses
rsolv 2.19
end 

* xyz 1 2
C          -0.22368317239482     -1.23625149501737     -0.03897534789507
C           1.14073173321165     -1.22107441298115      0.00222609102018
C           1.83223417666682     -0.00003913378052      0.02307501106839
C           1.14077724097872      1.22102189938313      0.00222005748549
C          -0.22363800872743      1.23624445208961     -0.03897964599650
C          -0.93252565437447      0.00000888135223     -0.05980762048777
N          -2.25042461460441      0.00003063261771     -0.09813130747331
H          -2.77456280587432      0.86431316206298     -0.11471288221429
H          -2.77459342591490     -0.86423297502156     -0.11471780809486
H          -0.78315207454268      2.16280038732931     -0.05626584714943
H           1.69290071417624      2.15101772160972      0.01879976619383
H           2.91390745774963     -0.00006135276030      0.05484458430832
H           1.69282382656920     -2.15108843200700      0.01881038069815
H          -0.78322709291924     -2.16278933487678     -0.05626063146314
*
