!r2SCANh aug-cc-pVTZ d3 TightSCF SlowConv RIJCOSX defgrid2
 
%pal
nprocs 4
end
 
%scf
MaxIter 1500
end
 
%maxcore 3000
 
!CPCM
%cpcm smd true
SMDsolvent "MeCN"
surfacetype gepol_ses
rsolv 2.19
end 
 
* xyz 0 1
C           1.70794904224376      1.04467574002160     -0.00082115823630
C           0.54506091843343      1.80041636987342      0.00092727542514
C          -0.71995737134675      1.20789382518015      0.00266725175734
C          -0.79928034034382     -0.18958869725345      0.00203404950996
C           0.36555187029785     -0.96292788679972     -0.00127682462626
C           1.62853570763603     -0.36210788791669     -0.00033727635058
N           2.77536570496609     -1.13072452733301      0.04605337906448
H           2.68782736481958     -2.09774939602609     -0.24334837672475
H           3.63153622370525     -0.68698285577236     -0.26446400959356
H           0.26012985099536     -2.05117646749275      0.00119199205899
O          -1.95887797909201     -0.88292631196206      0.00111465750073
C          -3.16473217214371     -0.17733625608172      0.00517658162857
H          -3.96763161416444     -0.93012200833219      0.00565020749220
H          -3.27146637162925      0.46046835612956     -0.89370073464759
H          -3.26716187551626      0.45698983325543      0.90693586054833
H          -1.61360225529630      1.83287965977611      0.00353042246975
H           0.61871381842504      2.89254399544489      0.00007743154790
H           2.68668417801016      1.53365321528886      0.00373907117562
*
