!TPSSh freq aug-cc-pVTZ d3 TightSCF SlowConv RIJCOSX defgrid2

%pal
nprocs 12
end

%scf
MaxIter 1500
end

%maxcore 5000

!CPCM
%cpcm smd true
SMDsolvent "MeCN"
surfacetype gepol_ses
rsolv 2.19
end 

* xyz 0 1
C          -0.02744958182921      1.19355106101602     -0.00014124741637
C           1.36124015794911      1.22498311821136      0.00004504840793
C           2.03890433303069      0.01841784302505      0.00010975405474
C           1.39790499226504     -1.21108348484715      0.00043287665444
C           0.01258839868584     -1.22082910696463     -0.00004096662540
C          -0.71576586339348     -0.02471106030310     -0.00043012380804
C          -2.20363333170080     -0.08684599220373     -0.00106220843728
O          -2.78103884707939     -1.16839151306050     -0.00239513647295
C          -2.97877905421773      1.20477472951682     -0.00008002566146
H          -2.72833587354227      1.80280325565992      0.87992775910340
H          -2.73058596787355      1.80295090453082     -0.88072716372166
H          -4.04473465477549      0.98645024014715      0.00126782746467
H          -0.52394867023204     -2.16051778463673      0.00009881605157
H           1.97423804972714     -2.12671794689089      0.00087943805160
F           3.39503857016351      0.03846604058365     -0.00004927432192
H           1.90736403471490      2.15874387641321      0.00000076766808
H          -0.56863859189226      2.13004791980272      0.00043745900866
*
