23
Coordinates from ORCA-job cs_rporg_061_ox_opt_08 E -538.568514487019
  C           1.35066876936088     -0.82062115050532      0.61877563726275
  C           2.61215189861107     -1.37876672431456      0.63382176151763
  C           3.69722278652280     -0.68744929377490      0.08203614151470
  C           3.52599597060823      0.58985524730139     -0.47123598388312
  C           2.27855085226865      1.17441367878357     -0.48475767814082
  C           1.19370169489819      0.44816506170390      0.03306902011876
  O           0.00003865572884      1.09309855495191     -0.00091791948058
  C          -1.19365430619804      0.44804232018675     -0.03394787350766
  C          -2.27824759415010      1.17425740824061      0.48438462526236
  C          -3.52569441633126      0.58961279283451      0.47166843539098
  C          -3.69724970745756     -0.68766159250720     -0.08151874295744
  C          -2.61244128428958     -1.37900182110204     -0.63376469782447
  C          -1.35096077090035     -0.82081892069344     -0.61931253140513
  H          -0.51478725250460     -1.31425812623349     -1.09412020504695
  H          -2.76520871417660     -2.34349183945674     -1.09881096233638
  H          -4.68280869613748     -1.13373620506544     -0.10458934327284
  H          -4.37298731119969      1.11765685221388      0.88764037332880
  H          -2.10593328680971      2.15535229237307      0.90558898598515
  H           2.10639506184441      2.15548204853700     -0.90608078113031
  H           4.37354081098962      1.11797374100405     -0.88658777440248
  H           4.68275703040568     -1.13354819701102      0.10555766163552
  H           2.76476692304711     -2.34321887019638      1.09900371730309
  H           0.51421368586949     -1.31358155727010      1.09356373406844
