18
Coordinates from ORCA-job cs_rporg_001_ox_opt_08 E -385.878318542656
  C           2.43948973044866     -0.69354482645600     -0.00009831991932
  C           2.43950791032828      0.69348751693080     -0.00023231402098
  C           1.22908539255824      1.39779010726385     -0.00023821004942
  C           0.00001144938187      0.71267156990425      0.00000625423646
  C          -1.22904510635867      1.39781956808295      0.00024640529632
  C          -2.43948431647736      0.69354890738834      0.00024965613298
  C          -2.43950584900051     -0.69348277752848      0.00011844527196
  C          -1.22908523070711     -1.39779032251601      0.00012309113767
  C          -0.00000796764836     -0.71267716897200     -0.00000136306398
  C           1.22905201721561     -1.39782105306064     -0.00012763100260
  H           1.23362022869672     -2.48049849840068     -0.00006949428948
  H          -1.23368049399585     -2.48046817678231      0.00004315771080
  H          -3.37400516915866     -1.23791443394389     -0.00034784598614
  H          -3.37396191196151      1.23801076257406     -0.00012768021743
  H          -1.23360596788021      2.48049848025221      0.00024128839505
  H           1.23367131022804      2.48047087034648     -0.00024704775034
  H           3.37400283014809      1.23792388063986      0.00014788556728
  H           3.37397214418272     -1.23800240572280      0.00039032255115
