14
Coordinates from ORCA-job cs_rporg_075_red_opt_06 E -287.561490809918
  C          -0.23030792598601     -1.20623951149265      0.00258683469850
  C           1.15811296354663     -1.19943938095008      0.00065766100626
  C           1.86707376327120     -0.00003039606983      0.00080629732861
  C           1.15814234148911      1.19939598970783      0.00065686864791
  C          -0.23027814910813      1.20622983574980      0.00258528315097
  C          -0.94679747157423      0.00000373571440      0.00463597610526
  N          -2.33067861486021      0.00002090152678      0.06914829824435
  H          -2.78156070471520      0.83782957184854     -0.26646485419443
  H          -2.78158225655674     -0.83777497697475     -0.26646786965758
  H          -0.77327853118846      2.14570384347163      0.00183016888245
  H           1.69093438795995      2.14402135091077     -0.00369315624245
  H           2.95023855324713     -0.00004360132051     -0.00229802273172
  H           1.69088187230463     -2.14407780556172     -0.00369196874080
  H          -0.77333062782969     -2.14570055656018      0.00183218350266
