!PBE0 freq def2-SV(p) d3 TightSCF SlowConv RIJCOSX defgrid2

%pal
nprocs 12
end

%scf
MaxIter 1500
end

%maxcore 5000

!CPCM
%cpcm smd true
SMDsolvent "MeCN"
surfacetype gepol_ses
rsolv 2.19
end 

* xyz 1 2
C          -0.22544184243838     -1.24122078695785     -0.03906602292929
C           1.14795297310473     -1.22625612217444      0.00236307778752
C           1.84413208449834     -0.00004024910161      0.02337754735381
C           1.14799491332436      1.22620211580580      0.00235707110286
C          -0.22539988457966      1.24121617375901     -0.03906459238100
C          -0.94026577773748      0.00001034363566     -0.05994773937060
N          -2.26308652072723      0.00003206621723     -0.09847449424570
H          -2.79389038995968      0.87220901628953     -0.11530871876120
H          -2.79391918572800     -0.87212862504440     -0.11530677852147
H          -0.78738370428222      2.17843494626835     -0.05631062595365
H           1.70384176880807      2.16679901009387      0.01896516694542
H           2.93672352628231     -0.00006389371056      0.05586955336911
H           1.70376684187017     -2.16687397703959      0.01897742653085
H          -0.78745650243534     -2.17842001804095     -0.05630607092666
*
