!PBE0 def2-SV(p) Opt Freq d3 TightSCF SlowConv RIJCOSX defgrid2
 
%pal
nprocs 4
end
 
%scf
MaxIter 1500
end
 
%maxcore 3000
 

 
* xyz 0 1
C     1.8493361   -0.0000839    0.0049887 
C     1.1525174   -1.1969131    0.0017345 
C    -0.2316090   -1.1949886   -0.0051570 
C    -0.9414768    0.0000951   -0.0090955 
C    -2.4408978    0.0000449    0.0061831 
H    -2.8336320    0.8877738   -0.4841667 
H    -2.8335584   -0.8842384   -0.4904387 
H    -2.8004716   -0.0037103    1.0357828 
C    -0.2314635    1.1950656   -0.0051712 
C     1.1526828    1.1968225    0.0017052 
H     1.6893911    2.1348754    0.0026936 
H    -0.7693454    2.1328900   -0.0090366 
H    -0.7696316   -2.1327273   -0.0089991 
H     1.6891199   -2.1350248    0.0027793 
H     2.9297121   -0.0001812    0.0084198
*
