15
Coordinates from ORCA-job cs_rporg_100_ox_opt_08 E -383.648955230872
  C           0.87141623312748     -1.42632044772765     -0.00074682594542
  C           2.10176836447943     -0.72366849636737      0.00059117631430
  C           2.17319422315158      0.67930567611879     -0.00016805929906
  C           1.02842818347841      1.44744051233157     -0.00111357966153
  C          -0.22184131897406      0.77089183092617     -0.00142942615290
  C          -0.24024577016044     -0.64443378671215     -0.00222379284976
  O          -1.55773122042062     -1.08985096152129     -0.00240223056935
  C          -2.31505468955440      0.00345854195263     -0.00009622649736
  C          -1.55473869890691      1.18116295777076      0.00028738203108
  H          -1.95652246928937      2.18142845015743      0.00287239695575
  H          -3.38328068961558     -0.14867796897542      0.00228770561261
  H           1.06636421068089      2.52803068503088     -0.00166734865188
  H           3.14426476720384      1.15436282869744      0.00058804324416
  H           3.01883947417399     -1.29796565120207      0.00309292885949
  H           0.83420090062579     -2.50620357047971      0.00019845660989
