!PBE0 def2-SV(p) Opt Freq d3 TightSCF SlowConv RIJCOSX defgrid2
 
%pal
nprocs 4
end
 
%scf
MaxIter 1500
end
 
%maxcore 3000
 

 
* xyz -1 2
C     0.4741469   -1.2072735    0.0000508 
C     1.8441411   -1.2286475    0.0000411 
C     2.5913476   -0.0492844   -0.0000228 
C     1.9083982    1.1721213   -0.0000609 
C     0.5422609    1.2114634   -0.0000428 
C    -0.2502053    0.0230719    0.0000008 
C    -1.6631822    0.1054442   -0.0000158 
O    -2.3115760    1.2109335   -0.0000077 
C    -2.4647292   -1.1991750   -0.0000663 
H    -3.5270056   -0.9600958   -0.0001574 
H    -2.2371035   -1.7933677    0.8857317 
H    -2.2369522   -1.7933824   -0.8858153 
H     0.0130220    2.1580449   -0.0000735 
H     2.4734396    2.0988966   -0.0001077 
H     3.6722489   -0.0781277   -0.0000389 
H     2.3620321   -2.1826698    0.0000835 
H    -0.0677848   -2.1437290    0.0001073
*
