!TPSSh aug-cc-pVTZ d3 TightSCF SlowConv RIJCOSX defgrid2
 
%pal
nprocs 4
end
 
%scf
MaxIter 1500
end
 
%maxcore 3000
 
!CPCM
%cpcm smd true
SMDsolvent "MeCN"
surfacetype gepol_ses
rsolv 2.19
end 
 
* xyz 0 1
C          -0.70040560978015      1.38862025457992      0.01444069210645
C          -1.91245524702018      0.69567306005554      0.01462586157947
C          -1.91249387248428     -0.69558156366748     -0.01462751179559
C          -0.70048149668899     -1.38859471559027     -0.01444474347923
C           0.51701567119323     -0.70749863359451      0.00344351300980
N           1.75688785576029     -1.35032496518044     -0.01869709041630
H           2.43013802514878     -0.92879340551386      0.62128772624243
H           1.70402046370050     -2.35551735549936      0.11662272713410
C           0.51705531626238      0.70745871640913     -0.00345498008622
N           1.75696057869555      1.35021757408851      0.01868096018628
H           2.43019999443086      0.92862198390732     -0.62127304374208
H           1.70415275870095      2.35540776572739     -0.11667373624575
H          -0.69435322474112     -2.48383255240663     -0.01483473135793
H          -2.85473613557899     -1.25061144525607     -0.02611079663032
H          -2.85466720705613      1.25075497082180      0.02610952373100
H          -0.69421807054270      2.48385751111900      0.01483302976389
*
