!PBE0 freq aug-cc-pVTZ d3 TightSCF SlowConv RIJCOSX defgrid2

%pal
nprocs 12
end

%scf
MaxIter 1500
end

%maxcore 5000

!CPCM
%cpcm smd true
SMDsolvent "MeCN"
surfacetype gepol_ses
rsolv 2.19
end 

* xyz 1 2
  C           0.87545771336742     -1.20751654705105     -0.00075517781144
  C           1.22492936456963      0.17470827809809     -0.00091084355044
  C           0.19137933876971      1.14006873930089     -0.00122616012703
  C          -1.12988008232129      0.78466290670066     -0.00076961356991
  C          -1.46130219684826     -0.60670240541344     -0.00047021608996
  C          -0.43587641409150     -1.57320151151145     -0.00067385729798
  H          -0.70768729399396     -2.62087177658617     -0.00015384763783
  C          -2.87366058445541     -1.03101028182445      0.00047843914489
  H          -2.97193938669140     -2.11400400773871     -0.00288027596266
  H          -3.39585538509587     -0.61999275926443     -0.86998311667809
  H          -3.39176544896455     -0.62645725863643      0.87654744084644
  C          -2.20494066194462      1.81235142770691     -0.00035673039250
  H          -2.84649306612061      1.70692428823565      0.87847179552503
  H          -2.84849362994726      1.70532827642959     -0.87749887143014
  H          -1.78299615332464      2.81580379906358     -0.00181447475472
  H           0.46839355966417      2.18746298048303     -0.00189341322515
  C           2.56860996347020      0.62306560634609      0.00008014291777
  C           3.66322457000193     -0.18616793345559      0.00124481850936
  H           3.59413857159906     -1.26625468212892      0.00071632880028
  H           4.65532905142771      0.24623396240396      0.00279849632252
  H           2.72021300873509      1.69705306381738     -0.00023405441416
  H           1.64645196219448     -1.96491296497518     -0.00118330912431
*
