!PBE0 def2-SV(p) Opt Freq d3 TightSCF SlowConv RIJCOSX defgrid2
 
%pal
nprocs 4
end
 
%scf
MaxIter 1500
end
 
%maxcore 3000
 

 
* xyz 1 2
C     0.4734088   -1.3044429   -0.0005749 
C     1.3969089   -0.2291529   -0.0002746 
C     0.8755310    1.0873854   -0.0003736 
C    -0.4733918    1.3044623   -0.0005996 
C    -1.3968913    0.2291729   -0.0006106 
C    -0.8755153   -1.0873658   -0.0007140 
H    -1.5453217   -1.9315993   -0.0009777 
C    -2.7921927    0.5267320   -0.0004339 
C    -3.8093512   -0.3733116    0.0008044 
C    -5.2277099    0.0055124    0.0011428 
H    -5.7254232   -0.4330447   -0.8668657 
H    -5.3699895    1.0828808   -0.0002275 
H    -5.7242885   -0.4306175    0.8710353 
H    -3.6068411   -1.4355197    0.0017891 
H    -3.0473566    1.5793765   -0.0011091 
H    -0.8538701    2.3148364   -0.0006384 
H     1.5453340    1.9316214   -0.0002425 
C     2.7922111   -0.5266982    0.0001592 
C     3.8093521    0.3733719    0.0004417 
C     5.2277203   -0.0054043    0.0009625 
H     5.7246657    0.4323769    0.8698058 
H     5.7250354    0.4315448   -0.8680956 
H     5.3700417   -1.0827676    0.0014712 
H     3.6068113    1.4355737    0.0002570 
H     3.0473942   -1.5793376    0.0003137 
H     0.8538869   -2.3148172   -0.0006665
*
