!B3LYP aug-cc-pVTZ d3 TightSCF SlowConv RIJCOSX defgrid2
 
%pal
nprocs 4
end
 
%scf
MaxIter 1500
end
 
%maxcore 3000
 
!CPCM
%cpcm smd true
SMDsolvent "MeCN"
surfacetype gepol_ses
rsolv 2.19
end 
 
* xyz 1 2
C          -1.44481249477950     -1.24089869043630     -0.04422599400373
C          -0.65270604847852     -0.00076368095320      0.28791614725384
C          -1.30929275863265      1.23982712865771      0.35161568821529
C          -2.74063823963677      1.43127678213719      0.02585737149656
C          -3.39505339125515      0.23037622200763     -0.64214547535322
C          -2.95552826966099     -1.04385052815768      0.05894599867098
H          -3.25015333818141     -1.00365338980094      1.12375920827710
H          -3.45411967363569     -1.92734186501785     -0.37018160543262
H          -3.10809852954095      0.19229025020268     -1.70915885064496
H          -4.49080288100221      0.33786121592847     -0.61492706244962
H          -3.25929625917231      1.67756120213297      0.97946727706286
H          -2.84476148649454      2.35439029011798     -0.57598988497406
H          -0.76469248652363      2.13141528408385      0.67016269395744
N           0.66752107988003     -0.10626256742495      0.51040491586712
C           1.56955562659101      1.00233502677147      0.81026146443154
H           1.02598182456206      1.94284494841719      0.94569175972172
C           2.60477512331413      1.13220701827643     -0.31350161995086
H           3.33201792543053      1.91420413707981     -0.04701570716605
H           2.09193033727133      1.43067631822316     -1.25179236728035
O           3.30361867772652     -0.05985085481676     -0.47723954868017
C           2.46362526797603     -1.12359131694069     -0.79016381810780
H           1.94257622699126     -0.95317296670009     -1.75539103320005
C           1.42056299159698     -1.34142967958749      0.31558716197835
H           1.93714553018002     -1.57576109367006      1.26235030582174
H           0.75880210570906     -2.17479036012822      0.05847316266350
H           3.08480888198717     -2.02759057110245     -0.88152456683608
H           2.08534474449633      0.75971289468002      1.75472159871514
H          -1.17788242047587     -1.56014085908261     -1.07070698702721
H          -1.13843616624223     -2.06145349489725      0.62645826697362
*
