!B3LYP freq aug-cc-pVTZ d3 TightSCF SlowConv RIJCOSX defgrid2

%pal
nprocs 12

end

%scf
MaxIter 1500
end

%maxcore 5000

!CPCM
%cpcm smd true
SMDsolvent "MeCN"
surfacetype gepol_ses
rsolv 2.19
end 

* xyz 0 1
C           0.86737695550746     -1.20046600745939      0.00004239985749
C           1.23274653536530      0.14897446332456      0.00015896159050
C           0.20751800982698      1.10049162972742      0.00021300054954
C          -1.13981839644817      0.75113346319559      0.00010909385983
C          -1.49065458807368     -0.60881671504983     -0.00005872147009
C          -0.47001285335906     -1.56173441759933     -0.00007691555346
H          -0.73305712932166     -2.61215519562722      0.00018911164468
C          -2.93050087183888     -1.03477047525278     -0.00018855250120
H          -3.01872253441517     -2.12013667090276      0.00009288867089
H          -3.46051025319606     -0.65388045519998     -0.87656362634184
H          -3.46081547004186     -0.65347821163704      0.87579153014013
C          -2.19744704972996      1.81858019453860      0.00005966571677
H          -2.84457827723829      1.74126106135827      0.87697890321240
H          -2.84615249376275      1.73932844430194     -0.87549111460861
H          -1.75202281997956      2.81228800478205     -0.00152986922505
H           0.47406030953098      2.15075286176579      0.00007736064140
C           2.62566534339183      0.60888342139632      0.00029517100137
C           3.72560062302774     -0.14599358351837     -0.00031620235245
H           3.69355227285487     -1.22827954780610     -0.00109457066141
H           4.70660059213987      0.30985101667598      0.00000224514403
H           2.74478937611200      1.68788356034113      0.00071631895294
H           1.62361421964806     -1.97316924135487      0.00011292173212
*
