!PBE0 def2-SV(p) Opt Freq d3 TightSCF SlowConv RIJCOSX defgrid2
 
%pal
nprocs 4
end
 
%scf
MaxIter 1500
end
 
%maxcore 3000
 

 
* xyz 0 1
C    -0.6841979    1.1979351    0.0101140 
C     0.6967547    1.1916043    0.0070638 
C     1.4124371    0.0003694    0.0066624 
C     2.9132587   -0.0002504   -0.0151623 
H     3.3073253    0.8939525    0.4626182 
H     3.2742970   -0.0197346   -1.0445334 
H     3.3069044   -0.8765159    0.4952904 
C     0.6969812   -1.1911670    0.0068983 
C    -0.6838554   -1.1979033    0.0098363 
C    -1.4000178   -0.0000390    0.0097831 
N    -2.7807111   -0.0002683   -0.0608464 
H    -3.2363971   -0.8465501    0.2407810 
H    -3.2366719    0.8458435    0.2408415 
H    -1.2209600   -2.1362301    0.0124223 
H     1.2308983   -2.1316477    0.0095073 
H     1.2302152    2.1323505    0.0097819 
H    -1.2215057    2.1361446    0.0129761
*
