26
Coordinates from ORCA-job cs_rporg_015_ox_opt_04 E -540.055651825835
  C           2.41325114194112     -0.93375610175494      0.55573206874017
  C           1.25653973397210     -0.38017861636450     -0.02718962979965
  C           1.34658203208671      0.87127833080913     -0.66851249511236
  C           2.54612850543264      1.54722667973901     -0.71139507037966
  C           3.67290758917548      0.99772550651124     -0.10767851806795
  C           3.60188852473792     -0.24149243592992      0.52747132595716
  H           4.48176883376205     -0.65846229003315      0.99974797517231
  H           4.61502336290230      1.53051026668470     -0.14143965243214
  H           2.61321144935577      2.49705595935112     -1.22545610676944
  H           0.47963842048418      1.27586554579512     -1.17329300795142
  C          -0.00001194981364     -1.09231277926103      0.00054810111094
  C          -0.00004867998484     -2.47698913487668      0.00065687382087
  H          -0.92480013130979     -3.03719163897420     -0.02401860743090
  H           0.92464026729533     -3.03727981934484      0.02555529915079
  C          -1.25658986566413     -0.38022535573383      0.02787829765282
  C          -2.41284123766611     -0.93349127689839     -0.55621453903072
  C          -3.60141323292636     -0.24108642631916     -0.52871675950960
  C          -3.67283854752369      0.99796467642265      0.10668170415234
  C          -2.54654846360673      1.54713362874680      0.71158796062187
  C          -1.34708719289075      0.87098000635369      0.66961495512422
  H          -0.48071091469379      1.27518667224211      1.17565732381925
  H          -2.61392817588466      2.49687036275903      1.22578776415029
  H          -4.61489259066155      1.53091320474149      0.13962888868484
  H          -4.48088243193205     -0.65771446664750     -1.00199001869804
  H          -2.35658789963368     -1.88540652168600     -1.06721075152100
  H           2.35736885304619     -1.88591797633193      1.06629071854500
