!PBE0 def2-SV(p) Opt Freq d3 TightSCF SlowConv RIJCOSX defgrid2
 
%pal
nprocs 4
end
 
%scf
MaxIter 1500
end
 
%maxcore 3000
 

 
* xyz 1 2
C     1.5119481   -1.2238746   -0.0000848 
C     2.2056967    0.0000144   -0.0000736 
C     1.5119449    1.2239046   -0.0000982 
C     0.1408691    1.2362863    0.0000676 
C    -0.5700998    0.0000144    0.0001191 
C     0.1408715   -1.2362572    0.0000817 
H    -0.4149608   -2.1615445    0.0001553 
C    -1.9579578    0.0000108    0.0000467 
C    -3.1744272    0.0000361    0.0000920 
H    -4.2302233    0.0000315    0.0001148 
H    -0.4149633    2.1615737    0.0001307 
H     2.0652493    2.1504937   -0.0001778 
H     3.2861338    0.0000162    0.0000563 
H     2.0652525   -2.1504638   -0.0001543
*
