!PBE0 def2-SV(p) Opt Freq d3 TightSCF SlowConv RIJCOSX defgrid2
 
%pal
nprocs 4
end
 
%scf
MaxIter 1500
end
 
%maxcore 3000
 

 
* xyz 0 1
C     0.9598074   -1.2860604    0.0000014 
C     2.3172642   -1.0231095   -0.0000115 
C     2.7718827    0.2860194    0.0000003 
C     1.8627189    1.3342555    0.0000206 
C     0.5059571    1.0777975    0.0000306 
C     0.0377828   -0.2384593    0.0000233 
C    -1.3817753   -0.5381215    0.0000349 
N    -2.2513140    0.3868830    0.0000250 
O    -3.5766365   -0.0351658    0.0000273 
H    -4.0924935    0.7875723    0.0000126 
H    -1.6713570   -1.5918409    0.0000619 
H    -0.2121464    1.8818752    0.0000402 
H     2.2167049    2.3543487   -0.0000008 
H     3.8321773    0.4896761   -0.0000302 
H     3.0227289   -1.8407267   -0.0000342 
H     0.6063929   -2.3075419    0.0000060
*
