!PBE0 def2-SV(p) Opt Freq d3 TightSCF SlowConv RIJCOSX defgrid2
 
%pal
nprocs 4
end
 
%scf
MaxIter 1500
end
 
%maxcore 3000
 

 
* xyz 1 2
C    -0.2219828   -1.2316154   -0.0396472 
C     1.1469905   -1.2180563    0.0023081 
C     1.8428378   -0.0000400    0.0234615 
C     1.1470316    1.2180031    0.0023286 
C    -0.2219356    1.2316049   -0.0396238 
C    -0.9488081    0.0000069   -0.0613018 
N    -2.2724318    0.0000702   -0.0991327 
H    -2.7952623    0.8704387   -0.1145832 
H    -2.7953392   -0.8703857   -0.1142745 
H    -0.7646467    2.1645660   -0.0557144 
H     1.6972366    2.1456883    0.0190441 
H     2.9214271   -0.0000576    0.0560089 
H     1.6971675   -2.1457588    0.0190044 
H    -0.7647163   -2.1645643   -0.0557532
*
