!PBE0 def2-SV(p) Opt Freq d3 TightSCF SlowConv RIJCOSX defgrid2
 
%pal
nprocs 4
end
 
%scf
MaxIter 1500
end
 
%maxcore 3000
 

 
* xyz 1 2
C    -1.8803687   -0.7090641    0.0000194 
C    -0.6902140   -1.3993338    0.0000166 
C     0.5359502   -0.7263401   -0.0000000 
C     1.7952106   -1.4818471   -0.0000224 
H     2.4088979   -1.2221552    0.8680339 
H     1.6159373   -2.5541261   -0.0000115 
H     2.4088520   -1.2221678   -0.8681164 
C     0.5359552    0.7263216   -0.0000063 
C     1.7952719    1.4818177   -0.0000286 
H     2.4088128    1.2222416   -0.8682180 
H     1.6159917    2.5540963    0.0000930 
H     2.4090006    1.2220454    0.8679634 
C    -0.6901648    1.3993158   -0.0000083 
C    -1.8803538    0.7090478    0.0000051 
H    -2.8198868    1.2395150    0.0000065 
H    -0.6944403    2.4785644   -0.0000178 
H    -0.6944816   -2.4785818    0.0000243 
H    -2.8199179   -1.2395043    0.0000292
*
