!PBE0 def2-SV(p) Opt Freq d3 TightSCF SlowConv RIJCOSX defgrid2
 
%pal
nprocs 4
end
 
%scf
MaxIter 1500
end
 
%maxcore 3000
 

 
* xyz 1 2
C     1.3916565   -0.8529707    0.5721206 
C     2.6603918   -1.3879717    0.5877101 
C     3.7390458   -0.6644719    0.0793574 
C     3.5450812    0.6207170   -0.4301216 
C     2.2876155    1.1770948   -0.4457850 
C     1.1889326    0.4321592    0.0314727 
O     0.0000674    1.0504789   -0.0001213 
C    -1.1889285    0.4322483   -0.0318173 
C    -2.2876385    1.1771369    0.4454622 
C    -3.5450461    0.6206557    0.4300567 
C    -3.7390680   -0.6645719   -0.0793147 
C    -2.6604291   -1.3880631   -0.5876269 
C    -1.3916727   -0.8530246   -0.5721858 
H    -0.5692515   -1.3773051   -1.0361899 
H    -2.8244807   -2.3619548   -1.0215071 
H    -4.7297046   -1.0907760   -0.1019435 
H    -4.3825596    1.1755518    0.8223904 
H    -2.1055062    2.1584342    0.8539970 
H     2.1054910    2.1584018   -0.8543554 
H     4.3826607    1.1756148   -0.8222799 
H     4.7297194   -1.0906321    0.1021545 
H     2.8244377   -2.3617197    1.0218877 
H     0.5692167   -1.3772761    1.0361047
*
