17
Coordinates from ORCA-job cs_rporg_143_red_opt_04 E -483.872918342492
  C          -0.02406783026398      1.19744885514527     -0.00021718921874
  C           1.35506344904412      1.21933669827066      0.00020975965127
  C           2.05349951685678      0.01726433260330      0.00003616929845
  C           1.39594099495639     -1.20657553987653     -0.00102190853887
  C           0.01782703374899     -1.23039844642538     -0.00127891473830
  C          -0.75834068480773     -0.02862346995908     -0.00025240135146
  C          -2.18072570042803     -0.08909726818837      0.00180808603802
  O          -2.81784458899391     -1.19006871311193      0.00546003190121
  C          -2.96174126454980      1.20590173892025     -0.00078656092594
  H          -2.74978120845850      1.82655716958764      0.87812693299769
  H          -2.74442694272116      1.82643858481581     -0.87846319822531
  H          -4.02732970264236      0.97463414605778     -0.00387735583778
  H          -0.50826154970076     -2.17679554017425     -0.00196651798050
  H           1.97117077433741     -2.12606135690610     -0.00167046581223
  F           3.41985667114451      0.04123394659071      0.00102826975670
  H           1.89697278638897      2.15841908486926      0.00083326488798
  H          -0.55341995391094      2.14251557778096      0.00032289809779
