23
Coordinates from ORCA-job cs_rporg_061_red_opt_03 E -537.514492911161
  C           1.36234104928262     -0.66263202319305      0.80109198126247
  C           2.61890247453712     -1.26462006138132      0.84915761383113
  C           3.69896553729127     -0.71445281093499      0.15618618772780
  C           3.51452392525702      0.45046166431647     -0.59044349954407
  C           2.26106378838328      1.05739150412025     -0.65334325032657
  C           1.18783356271033      0.49810206713115      0.04221276354227
  O          -0.00001896264703      1.17054829503524      0.00003116501521
  C          -1.18784377970160      0.49809877206420     -0.04222436555488
  C          -2.26115357328060      1.05742068341727      0.65320686511656
  C          -3.51460480289467      0.45047814745965      0.59020698668080
  C          -3.69895561824171     -0.71451870158694     -0.15631463605985
  C          -2.61880846965551     -1.26476610134196     -0.84908653289980
  C          -1.36226365018254     -0.66274374885352     -0.80097809814552
  H          -0.52092514434632     -1.09060113959107     -1.35260929441997
  H          -2.75342354477143     -2.17341946996608     -1.44387454265754
  H          -4.68199707799717     -1.19198900016218     -0.20025253371281
  H          -4.35357213767089      0.89250991926705      1.13633226581440
  H          -2.09892265132607      1.96781277600139      1.23620705973279
  H           2.09877103147147      1.96774621144322     -1.23638848525346
  H           4.35343451360395      0.89245142997071     -1.13669104879790
  H           4.68201725468173     -1.19190711501688      0.20007862592155
  H           2.75360012256241     -2.17318783809952      1.44406160006165
  H           0.52108445293434     -1.09042766009906      1.35289287266575
