!PBE0 def2-SV(p) Opt Freq d3 TightSCF SlowConv RIJCOSX defgrid2
 
%pal
nprocs 4
end
 
%scf
MaxIter 1500
end
 
%maxcore 3000
 

 
* xyz -1 2
C     0.6862033   -1.2179451   -0.0014797 
C    -0.6779199   -1.2184643   -0.0017748 
C    -1.3835409    0.0043307    0.0002482 
C    -0.6531289    1.2118643    0.0026207 
C     0.7128952    1.1979986    0.0023247 
C     1.4317298   -0.0171356    0.0001754 
C     2.8792034   -0.0915110   -0.0007172 
O     3.4885517   -1.1687644    0.0018546 
C     3.6533920    1.2137895   -0.0058132 
H     3.4085291    1.7969038    0.8786809 
H     4.7179915    0.9933613   -0.0091203 
H     3.4021040    1.7935974   -0.8906742 
H     1.2415025    2.1381408    0.0042528 
H    -1.2079264    2.1382635    0.0046112 
N    -2.7578610    0.0196592   -0.0000887 
O    -3.3779754    1.1273497    0.0017955 
O    -3.4027621   -1.0737086   -0.0023269 
H    -1.2459599   -2.1366381   -0.0036123 
H     1.2359375   -2.1485415   -0.0030422
*
