19
Coordinates from ORCA-job cs_rporg_150_red_opt_03 E -588.441519793922
  C           0.68408366168608     -1.22664528293278     -0.00249355555002
  C          -0.69168499999066     -1.22865305833349     -0.00120520411516
  C          -1.40019944098182      0.00233177138536      0.00015748157266
  C          -0.67313794205255      1.22033855355968     -0.00053683797105
  C           0.70562509500564      1.20164135973517     -0.00172102400350
  C           1.43273568123424     -0.01855013533141     -0.00260023651851
  C           2.89280890514887     -0.08762805729422     -0.00372443784946
  O           3.49014969218630     -1.16411280170149     -0.00538569563605
  C           3.67634813768720      1.20830569675458     -0.00228072285598
  H           3.44628943463316      1.82182977041328      0.88722599190394
  H           4.75172236594435      0.97119332152648     -0.00299061951258
  H           3.44579922098985      1.82421980209910     -0.88998273905945
  H           1.24039626031640      2.15598257202894     -0.00209524490014
  H          -1.23047332987049      2.15828956752176      0.00013768384833
  N          -2.79353177923703      0.01360517291864      0.00258921141246
  O          -3.39188055882361      1.11290701722108      0.00349221983000
  O          -3.40942172898893     -1.07599133260750      0.00377677576509
  H          -1.26443108852793     -2.15755998576148     -0.00104672076698
  H           1.23976791364091     -2.16895375120172     -0.00340182559358
