!PBE0 def2-SV(p) Opt Freq d3 TightSCF SlowConv RIJCOSX defgrid2
 
%pal
nprocs 8
end
 
%scf
MaxIter 1500
end
 
%maxcore 3000
 

 
* xyz 0 1
6        1.361849300     -0.003716700     -0.047438600
6        0.755239000      1.260336300      0.010326500
6       -0.626359300      1.382568000     -0.000017700
6       -1.445500000      0.246248300      0.000777500
6       -0.847241700     -1.017686700     -0.022166600
6        0.542745000     -1.134272700     -0.073623300
1        0.990962700     -2.132554000     -0.157104000
1       -1.450734700     -1.927296000     -0.040209800
8       -2.777423300      0.466127000      0.015699400
6       -3.639624000     -0.633860300      0.022530400
1       -4.662963000     -0.229442600      0.045489000
1       -3.520133500     -1.255500000     -0.886427400
1       -3.485232900     -1.271002600      0.915346300
1       -1.102906000      2.366092000      0.017829700
1        1.370206700      2.165453600      0.070659000
16       3.115188000     -0.240829900      0.074565200
1        3.447025400      1.071902100     -1.280825900
*
