!PBE0 def2-SV(p) Opt Freq d3 TightSCF SlowConv RIJCOSX defgrid2
 
%pal
nprocs 4
end
 
%scf
MaxIter 1500
end
 
%maxcore 3000
 

 
* xyz 1 2
C    -1.0632731   -0.8986633   -0.0022302 
C     0.2470578   -1.3898903   -0.0024861 
C     0.5255731   -2.8427953    0.0009109 
H    -0.3859896   -3.4324435   -0.0321534 
H     1.0950362   -3.1128289    0.8938929 
H     1.1611305   -3.1084251   -0.8468627 
C     1.3097465   -0.4714429   -0.0028015 
C     1.0798817    0.9090818   -0.0036497 
C     2.1992192    1.8763334   -0.0001508 
H     3.1646475    1.3823352   -0.0611406 
H     2.0959799    2.5802342   -0.8287153 
H     2.1657270    2.4822243    0.9091901 
C    -0.2466937    1.3702611   -0.0030888 
C    -1.3272514    0.4809560   -0.0031125 
C    -2.7246511    0.9663552   -0.0002394 
H    -3.2750120    0.5421993   -0.8430329 
H    -2.7794930    2.0503772   -0.0407695 
H    -3.2408517    0.6151039    0.8969176 
H    -0.4338651    2.4338994   -0.0024620 
H     2.3244960   -0.8411188   -0.0020606 
H    -1.8910892   -1.5922912   -0.0007504
*
