!PBE0 def2-SV(p) Opt Freq d3 TightSCF SlowConv RIJCOSX defgrid2
 
%pal
nprocs 4
end
 
%scf
MaxIter 1500
end
 
%maxcore 3000
 

 
* xyz 1 2
C    -0.9041340   -0.4628610   -0.0002356 
C    -2.1731118    0.1339619    0.0062563 
C    -2.2936796    1.5026105    0.0291006 
C    -1.1522146    2.3248319    0.0482090 
C     0.1010662    1.7685930    0.0410046 
C     0.2805733    0.3721693    0.0145705 
C     1.5513496   -0.2667566   -0.0022054 
C     2.7689248    0.3487617    0.0255487 
C     4.0373639   -0.3807118   -0.0010772 
H     3.9028319   -1.4576875   -0.0480229 
H     4.6367268   -0.0444386   -0.8512125 
H     4.6315269   -0.1188335    0.8786218 
H     2.8426443    1.4264483    0.0723953 
H     1.5311823   -1.3487817   -0.0391577 
H     0.9644356    2.4124961    0.0528262 
H    -1.2717532    3.3963690    0.0669191 
H    -3.2735727    1.9538322    0.0327330 
H    -3.0600449   -0.4783976   -0.0069142 
O    -0.6904457   -1.7637261   -0.0168417 
C    -1.7584882   -2.6921957   -0.0239068 
H    -2.3841062   -2.5654784   -0.9104901 
H    -2.3700641   -2.5924740    0.8759672 
H    -1.2884998   -3.6735440   -0.0424047
*
