!B3LYP freq aug-cc-pVTZ d3 TightSCF SlowConv RIJCOSX defgrid2

%pal
nprocs 12

end

%scf
MaxIter 1500
end

%maxcore 5000

!CPCM
%cpcm smd true
SMDsolvent "MeCN"
surfacetype gepol_ses
rsolv 2.19
end 

* xyz -1 2
C          -0.02181724140056      1.19977767996775     -0.00030143897900
C           1.35998085443313      1.22119911046386      0.00018882959028
C           2.05642547810201      0.01605132677392      0.00013773306815
C           1.40048930615046     -1.21065155982971     -0.00082404667176
C           0.01980166540373     -1.23482030931309     -0.00121007778361
C          -0.75864224107289     -0.02951636743789     -0.00038274751056
C          -2.18375135821569     -0.08780338034885      0.00139279252163
O          -2.82565034645465     -1.19378313342425      0.00446303546187
C          -2.97180975127445      1.21033110707209     -0.00064204481740
H          -2.76061432640517      1.83060291999670      0.87761181645035
H          -2.75645635808240      1.83053612277209     -0.87792595406469
H          -4.03584413410033      0.97699274021004     -0.00303185448080
H          -0.50317098197897     -2.18034842326048     -0.00181173828094
H           1.97508916147792     -2.12839492383106     -0.00129259202919
F           3.43753773828165      0.04008879203698      0.00109579105005
H           1.90152134613865      2.15839726508818      0.00070380218141
H          -0.54869701100244      2.14347083306372      0.00011959429422
*
