!TPSSh freq aug-cc-pVTZ d3 TightSCF SlowConv RIJCOSX defgrid2

%pal
nprocs 12
end

%scf
MaxIter 1500
end

%maxcore 5000

!CPCM
%cpcm smd true
SMDsolvent "MeCN"
surfacetype gepol_ses
rsolv 2.19
end 

* xyz 0 1
C          -0.72988942010251     -1.02100360732575      0.00094610715936
C          -1.30961804329032      0.25075356321136      0.00084828744372
C          -0.49270542425432      1.38845631475069      0.00021577526647
C           0.88212835270050      1.25665557172225     -0.00023306730924
C           1.48174819149659     -0.01603373718826      0.00000483644024
C           0.65310766145970     -1.14528339090363      0.00059035856467
H           1.09645100298623     -2.13293426395180      0.00030356028119
C           2.89898590059267     -0.15199311522117     -0.00081764127893
C           4.10133636443804     -0.26612673327215      0.00040913643859
H           5.16284324514094     -0.36597281136586     -0.00102206185537
H           1.50623582591864      2.14108879262581     -0.00095446391687
H          -0.95359374920347      2.36821988523173      0.00028400813385
O          -2.64664466132984      0.47733790158746      0.00133813261094
C          -3.51193050402283     -0.66572600251635     -0.00047967575910
H          -4.52283496795798     -0.26527785388266     -0.00074351789849
H          -3.35339127167101     -1.27041955023293     -0.89642287975392
H          -3.35487492849018     -1.27254769789148      0.89429125586492
H          -1.34159547441083     -1.91173446537726      0.00162404956797
*
