!PBE0 aug-cc-pVTZ d3 TightSCF SlowConv RIJCOSX defgrid2
 
%pal
nprocs 4
end
 
%scf
MaxIter 1500
end
 
%maxcore 3000
 
!CPCM
%cpcm smd true
SMDsolvent "MeCN"
surfacetype gepol_ses
rsolv 2.19
end 
 
* xyz 1 2
C           0.36827679708562      1.12909958561368      0.00001201858489
C           1.23021186730918     -0.05147463040440     -0.00001068145654
C           0.32335488869874     -1.13603513764026      0.00001262805170
N          -0.92044080134995     -0.70993319155687     -0.00001608440871
N          -0.85103182536878      0.66975840476644     -0.00001794399136
H          -1.72751346867464      1.19655640497152     -0.00003121087121
H           0.53889211956751     -2.20626533221750      0.00002437345705
H           2.32274963721698     -0.05868473826387     -0.00000548893473
H           0.61922738551534      2.19354113473125      0.00001908956891
*
