26
Coordinates from ORCA-job cs_rporg_015_ox_opt_08 E -540.768799249513
  C           2.42230352616407     -0.93967185065321      0.55395676667095
  C           1.25951593658087     -0.38560971154623     -0.02731266921458
  C           1.34515879875246      0.87334496095507     -0.66544135860675
  C           2.54528563840583      1.55610620094528     -0.70562222792677
  C           3.67856810652336      1.00584233737466     -0.10368066735552
  C           3.61187185026418     -0.24112438636345      0.52736087430039
  H           4.49354374784810     -0.65683800598034      0.99712782798028
  H           4.61885991421619      1.54158673683928     -0.13586227472231
  H           2.60896111030022      2.50843993754257     -1.21520939393472
  H           0.47607610672627      1.27576006187750     -1.16799099253149
  C          -0.00000570549071     -1.10233841529063      0.00019637099190
  C          -0.00003460802992     -2.48933307036506      0.00018510010177
  H          -0.92472654811303     -3.04999418999173     -0.01929544407525
  H           0.92462709128575     -3.05004417162606      0.01968554274561
  C          -1.25952449905545     -0.38558911777278      0.02757646044082
  C          -2.42215182971805     -0.93951962168999     -0.55411589561984
  C          -3.61169501277446     -0.24091618816804     -0.52785170744445
  C          -3.67854712087020      1.00598657107722      0.10328056731093
  C          -2.54544555482518      1.55611097274351      0.70570295844559
  C          -1.34535777294727      0.87326975987189      0.66586309035078
  H          -0.47652092219768      1.27561931840986      1.16890430148388
  H          -2.60924094930472      2.50838746005521      1.21537445618179
  H          -4.61881791219384      1.54178536604920      0.13515340253785
  H          -4.49322069397192     -0.65653541850228     -0.99797479446139
  H          -2.36891360407110     -1.89364615065512     -1.06095714187422
  H           2.36919830649625     -1.89387338513632      1.06067094822473
