14
Coordinates from ORCA-job cs_rporg_162_ox_opt_04 E -416.407654488724
  C          -1.19502699863960     -0.01949755275563      0.00012549319581
  C          -1.19992852228543      1.37598903587222      0.00041741305124
  C           0.00003936697167      2.06474932441758      0.00001930673042
  C           1.19997232295107      1.37592821011447     -0.00048367064602
  C           1.19500924601709     -0.01955426839895     -0.00036506032879
  C          -0.00002511325134     -0.72928410222928     -0.00020028907560
  H          -0.00004954685263     -1.81026939568422     -0.00030166806502
  C           2.43020971257624     -0.73031750642671     -0.00016494698539
  N           3.43022110594753     -1.30092539298517      0.00130545183879
  H           2.14045738282756      1.91029704338757     -0.00056051002507
  H           0.00006607316968      3.14634908739695      0.00009995066039
  H          -2.14038843820062      1.91040198900094      0.00057646859979
  C          -2.43024163318240     -0.73023687038695     -0.00000093803281
  N          -3.43025075804882     -1.30085010132283     -0.00040690091774
