!PBE0 opt aug-cc-pVTZ d3 TightSCF SlowConv RIJCOSX defgrid2

%pal
nprocs 8
end

%scf
MaxIter 1500
end

%maxcore 3500

!CPCM
%cpcm smd true
SMDsolvent "MeCN"
surfacetype gepol_ses
rsolv 2.19
end 

* xyz 0 1
C           0.94968287453071     -1.27993729727395      0.00000683726847
C           2.32072584922403     -1.03066468402730     -0.00000570192654
C           2.79045486785265      0.28126328538775     -0.00000619644263
C           1.88129493900205      1.34320110702256      0.00000552102250
C           0.51414900986878      1.09690334373603      0.00001977591165
C           0.03124775758730     -0.22186358373352      0.00001975571628
C          -1.40109719375212     -0.51811607942485      0.00002773818787
N          -2.27722630544222      0.40983670208196      0.00003187543002
O          -3.54943597920683     -0.07892856387383      0.00003589961153
H          -4.10699565150034      0.71269395667835      0.00004041054052
H          -1.72077053189788     -1.57247842719527      0.00002621709873
H          -0.20517984986564      1.91961492482438      0.00002936627338
H           2.24665800678188      2.37456842670514      0.00000344087776
H           3.86637191838654      0.47947397298735     -0.00001641660649
H           3.02594458116043     -1.86704493909579     -0.00001599324974
H           0.58187010727067     -2.31112044479903      0.00000487028669
*
