!r2SCANh aug-cc-pVTZ d3 TightSCF SlowConv RIJCOSX defgrid2
 
%pal
nprocs 4
end
 
%scf
MaxIter 1500
end
 
%maxcore 3000
 
!CPCM
%cpcm smd true
SMDsolvent "MeCN"
surfacetype gepol_ses
rsolv 2.19
end 
 
* xyz 0 1
C           0.03260910228520      1.08137561321675     -0.00005519024681
C          -1.34067616416986      1.33940990966857     -0.00006277386150
C          -2.26505829948608      0.29987796591520     -0.00002637645918
C          -1.80355661628939     -1.01995706797392      0.00001567004565
C          -0.44212934457685     -1.29206473885913      0.00002194287208
C           0.48773718530999     -0.24207145865110     -0.00001289966776
O           1.78848371232752     -0.60054348212568     -0.00000734481067
C           2.76447200773818      0.40008618654603     -0.00000767276834
H           2.69619012376907      1.04049548625701     -0.90084775937446
H           2.69616289260516      1.04052094820081      0.90081198872589
H           3.73793416758510     -0.11300324243944      0.00001415192437
H          -0.06314832394927     -2.31720165011296      0.00005410336572
H          -2.51681541922482     -1.84998358326110      0.00004248911056
H          -3.33762461646730      0.51193314493410     -0.00003142013851
H          -1.68480228384705      2.37828066720121     -0.00009724328111
H           0.73383607639040      1.91798680148364     -0.00008576543595
*
