18
Coordinates from ORCA-job cs_rporg_001_ox_opt_05 E -385.617360781801
  C           2.43630366046240     -0.69244979416548     -0.00011422512832
  C           2.43633091746412      0.69238786321904     -0.00025015579916
  C           1.22756878180802      1.39617811281927     -0.00023115514473
  C           0.00000641936231      0.71226422412073      0.00002450863052
  C          -1.22752802559705      1.39621893860249      0.00026996758847
  C          -2.43630551205833      0.69245386181267      0.00022110209924
  C          -2.43632325323117     -0.69239684726508      0.00009930656504
  C          -1.22755945885502     -1.39618513786166      0.00014164778959
  C          -0.00001241217544     -0.71225119996126      0.00001513222453
  C           1.22752344759567     -1.39620334421640     -0.00011973933735
  H           1.23223379063826     -2.47721989811419     -0.00004663890669
  H          -1.23228652487473     -2.47720733228780      0.00011047488280
  H          -3.36959136056547     -1.23599086585187     -0.00038697288572
  H          -3.36955580142046      1.23607060720091     -0.00020495018384
  H          -1.23222332944000      2.47724045418195      0.00031244370913
  H           1.23230304159926      2.47720053693322     -0.00021720927724
  H           3.36959883022010      1.23598219918733      0.00011386519089
  H           3.36954778906756     -1.23607037835387      0.00033919798281
