!COSMORS(Water)

%pal
nprocs 15
end



%maxcore 3500



* xyz 1 1
O           1.78804094605451      3.57407180225234      1.26949194793146
N           2.67789422851893      2.80320165261973      1.24235605674492
C           3.71778316034813      2.91642565718559      0.16690169044367
C           4.00336272113038      1.49623261444906     -0.34502278805979
C           4.25766982671167      0.52191894036115      0.75815899662553
C           3.72478741138320      0.67902204568292      1.96909401147761
C           2.74959286644548      1.76027704323926      2.33487529589660
C           4.95479041346433      3.52595927403589      0.85716379705375
C           3.19004706306109      3.83072822434414     -0.92224433141749
C           3.15485574167612      2.51408579594002      3.61549894601635
C           1.33516544733407      1.17999753290778      2.47825951823241
H           4.87996183732221      1.57668875415100     -1.00999500614608
H           3.17021668262368      1.15296792938084     -0.98863220317568
H           4.90337590828949     -0.33836578770133      0.55566284253488
H           3.92357861346000     -0.03968109815672      2.77061581286109
H           4.70844618705422      4.48811332405391      1.33490279509444
H           5.40761709603610      2.84446172249759      1.59225247734595
H           5.69483505273624      3.71884274386665      0.06263108376658
H           3.04024511163629      4.86095117972371     -0.56406719285224
H           2.23933329941609      3.45894408996336     -1.33920228019874
H           3.93412607430717      3.85508376979621     -1.73438810478811
H           2.42690041381949      3.30933728300165      3.84390224235101
H           4.16701870887203      2.94082178104930      3.54605561909481
H           3.14478541414984      1.78516218068988      4.44194641182067
H           0.61276609896706      1.95074174596123      2.78900733696933
H           1.00104681299372      0.70960454278176      1.53898778688725
H           1.37065586218837      0.39927625592302      3.25432923748977
*
