!TPSSh freq aug-cc-pVTZ d3 TightSCF SlowConv RIJCOSX defgrid2

%pal
nprocs 12
end

%scf
MaxIter 1500
end

%maxcore 5000

!CPCM
%cpcm smd true
SMDsolvent "MeCN"
surfacetype gepol_ses
rsolv 2.19
end 

* xyz 0 1
C          -1.15659827597814     -1.24494658505760     -0.00083390281054
C          -2.50996536455794     -0.94959866013985     -0.00038036086651
C          -2.93303120432306      0.37913374422543      0.00030648352956
C          -2.00033863044097      1.41328847118880      0.00007255737780
C          -0.64228154491261      1.12693748483343     -0.00053270255533
C          -0.21490270844357     -0.20416752048298     -0.00059193201990
C           1.19774480826908     -0.60166650533854      0.00032734228625
O           1.64232851366072     -1.70769469971822     -0.00055304263856
Cl          2.39036471157629      0.79468953606911      0.00325608366126
H           0.08079204093345      1.92974624205886     -0.00091731222115
H          -2.33090089034195      2.44394224038679      0.00112484969332
H          -3.99172649713205      0.60720198436838      0.00113256960916
H          -3.23621911325437     -1.75229838107642     -0.00047579233029
H          -0.81594304505484     -2.27163335131716     -0.00144014071506
*
