!PBE0 def2-SV(p) Opt Freq d3 TightSCF SlowConv RIJCOSX defgrid2
 
%pal
nprocs 4
end
 
%scf
MaxIter 1500
end
 
%maxcore 3000
 

 
* xyz 1 1
S    -0.0001352    1.3771040   -0.0005192 
C    -1.3649154    0.2864725    0.0020417 
C    -2.6257550    0.8350422    0.0070577 
C    -3.7794751    0.0243595   -0.0088921 
C    -3.5842097   -1.3907165   -0.0289016 
C    -2.3401530   -1.9323793   -0.0252654 
H    -2.1957773   -3.0007149   -0.0279600 
C    -1.1657008   -1.1289001   -0.0092123 
N    -0.0000143   -1.7517764   -0.0011168 
C     1.1656152   -1.1288270    0.0072223 
C     2.3401266   -1.9322337    0.0229530 
C     3.5841348   -1.3904795    0.0268168 
C     3.7792919    0.0246234    0.0072942 
C     2.6255179    0.8352336   -0.0082911 
C     1.3647257    0.2865714   -0.0034795 
H     2.7061514    1.9092180   -0.0017737 
N     5.0098295    0.5591688    0.0009136 
C     5.2040000    1.9816912   -0.1754853 
H     4.6065330    2.3502244   -1.0104590 
H     4.9306684    2.5315703    0.7293972 
H     6.2498744    2.1785469   -0.3965420 
C     6.1891558   -0.2612409    0.1740445 
H     7.0426373    0.3776878    0.3863926 
H     6.0636351   -0.9463151    1.0131994 
H     6.4046485   -0.8379943   -0.7296833 
H     4.4360871   -2.0482212    0.0213952 
H     2.1958240   -3.0005821    0.0251164 
H    -4.4360995   -2.0485411   -0.0237184 
N    -5.0100545    0.5588681   -0.0022724 
C    -6.1894211   -0.2616230   -0.1747091 
H    -6.4044098   -0.8382562    0.7292251 
H    -6.0642800   -0.9468204   -1.0138045 
H    -7.0430573    0.3772037   -0.3867547 
C    -5.2040853    1.9813712    0.1745389 
H    -4.6077663    2.3493056    1.0106249 
H    -4.9291600    2.5315835   -0.7296538 
H    -6.2502352    2.1784795    0.3940266 
H    -2.7064618    1.9090231    0.0011464
*
