!PBE0 freq aug-cc-pVTZ d3 TightSCF SlowConv RIJCOSX defgrid2

%pal
nprocs 12
end

%scf
MaxIter 1500
end

%maxcore 5000

!CPCM
%cpcm smd true
SMDsolvent "MeCN"
surfacetype gepol_ses
rsolv 2.19
end 

* xyz 0 1
  C           1.34553984154909     -0.63236984385472      0.81624119461852
  C           2.58788636231364     -1.24601385354840      0.86636957175527
  C           3.66318872444278     -0.72592419882634      0.15816795814026
  C           3.48936911558684      0.42073851319885     -0.60449510139917
  C           2.25009020282094      1.04037417240525     -0.66875155599769
  C           1.18374314114989      0.50826931286186      0.04064706083188
  O          -0.00000414722889      1.19853483529506      0.00025630765471
  C          -1.18371989540813      0.50828261658623     -0.04036073130962
  C          -2.25030617168008      1.04050107614836      0.66860596239864
  C          -3.48953908320157      0.42080552580165      0.60412878184192
  C          -3.66314711361840     -0.72595118087598     -0.15843659532427
  C          -2.58767784248889     -1.24605525180994     -0.86634797766658
  C          -1.34535957554399     -0.63240615689687     -0.81589748863111
  H          -0.50980383089408     -1.03435827234278     -1.37468189365216
  H          -2.71445174895909     -2.13603706597183     -1.47104928407345
  H          -4.63046938306197     -1.21057917047969     -0.20356247105608
  H          -4.32160119389064      0.83671782551749      1.15934698133164
  H          -2.09999884544462      1.93369929085952      1.26217567437452
  H           2.09958328879921      1.93344325653802     -1.26246194401695
  H           4.32126574088169      0.83662009373654     -1.15997772743611
  H           4.63056391510086     -1.21046843872295      0.20315268044664
  H           2.71482858188132     -2.13596020461692      1.47108933287260
  H           0.51006821689415     -1.03410708100240      1.37530096429659

*
