!TPSSh opt aug-cc-pVTZ d3 TightSCF SlowConv RIJCOSX defgrid2

%pal
nprocs 8
end

%scf
MaxIter 1500
end

%maxcore 3500

!CPCM
%cpcm smd true
SMDsolvent "MeCN"
surfacetype gepol_ses
rsolv 2.19
end 

* xyz 0 1
  C           1.35661311001034      0.08242353673381     -0.04830147992154
  C           0.72528734400678      1.33237499260851      0.02931980589731
  C          -0.65716684626784      1.42571283843268      0.04302512633637
  C          -1.44754625606451      0.26653460954742      0.00874339988909
  C          -0.82552870874395     -0.98502153376474     -0.04770168852446
  C           0.56772235704198     -1.06633130194090     -0.08313298846277
  H           1.05006188676245     -2.04577688056741     -0.14354433447971
  H          -1.41135553820799     -1.90566385705075     -0.07389044457674
  O          -2.78063858244739      0.45554290336633      0.03645550634804
  C          -3.62283453444167     -0.66142074230683      0.01078196288993
  H          -4.65283077190408     -0.27592428677814      0.04102787975267
  H          -3.48787720923621     -1.25466269618222     -0.91406269819965
  H          -3.45860421924221     -1.31813897835911      0.88673287617431
  H          -1.16047233306293      2.39441311771435      0.09515969980486
  H           1.33361129819119      2.23967992641979      0.08145593960365
  S           3.13145786803727     -0.06127748319567     -0.01892864657318
  H           3.36519883556877      0.49010163532289     -1.23773021595817
*
