!r2SCANh aug-cc-pVTZ d3 TightSCF SlowConv RIJCOSX defgrid2
 
%pal
nprocs 4
end
 
%scf
MaxIter 1500
end
 
%maxcore 3000
 
!CPCM
%cpcm smd true
SMDsolvent "MeCN"
surfacetype gepol_ses
rsolv 2.19
end 
 
* xyz 1 2
  C           0.32102019331516     -1.19542386061728     -0.14148513269053
  N           1.10243703742587      0.00016587284657     -0.03493498389965
  H           2.12790837562502      0.00032492444948     -0.06391998039902
  C           0.32776853288643      1.19559735299303      0.11419545489126
  C          -1.10184122089178      0.73960306514008     -0.17705770971163
  C          -1.09090160245375     -0.73957390726683      0.22597738884058
  H          -1.24513402062308     -0.85614376606510      1.31228662008834
  H          -1.86247558532270     -1.33277654839199     -0.28577641973945
  H          -1.84489899623950      1.33262955312356      0.37546884555940
  H          -1.31417979146215      0.85631071138639     -1.25352523011859
  H           0.74060448118867      2.00031005458115     -0.52340635871813
  H           0.46483350827758      1.54453868347447      1.16584085187759
  H           0.40187216908273     -1.54535148914433     -1.19859107684141
  H           0.76758011919150     -1.99962684650920      0.47372433086124
*
