!r2SCAN aug-cc-pVTZ d3 TightSCF SlowConv RIJCOSX defgrid2
 
%pal
nprocs 4
end
 
%scf
MaxIter 1500
end
 
%maxcore 3000
 
!CPCM
%cpcm smd true
SMDsolvent "MeCN"
surfacetype gepol_ses
rsolv 2.19
end 
 
* xyz -1 2
C          -1.65840506329252      1.23315632851947      0.02601526537403
C          -2.42578649114951      0.03281585518203      0.08528804223097
C          -1.67500855485910     -1.17845195322716      0.12036686377485
C          -0.29808583706699     -1.18487448797938      0.09449761529292
C           0.47768362470154      0.01218058376897      0.03640458659712
C          -0.28519866523432      1.22292049595471      0.00549364199425
H           0.23475594749759      2.18352828017466     -0.06045863687846
C           1.92437178707837      0.00115458002986      0.01100117558003
C           2.67883904782948     -1.19675573826742     -0.15101120804037
C           4.06549110019082     -1.20386096938929     -0.17390692614329
C           4.80148582635897     -0.01911609182057     -0.03832527138067
C           4.08714619159076      1.17581153913523      0.12162078849715
C           2.70053896682853      1.18836482105812      0.14598455531242
H           2.19415808930578      2.14532112879358      0.29368951522032
H           4.62811245028724      2.12283575750504      0.23701258282278
H           5.89571186828997     -0.02674525345583     -0.05713878250098
H           4.58896204524971     -2.15823787143737     -0.30821999533445
H           2.15467602469528     -2.14659846493838     -0.28283079681457
H           0.20917374243606     -2.15301705967323      0.14488479784911
H          -2.19771917366060     -2.13934491080503      0.17750905700078
C          -3.86642076140458      0.10366572155671      0.10496388365322
O          -4.50000624052699      1.17092445235144      0.07778084872509
C          -4.64653285281065     -1.20806217086235      0.16034754144994
H          -5.72082859909169     -0.96357086012156      0.16151446988558
H          -4.42797764815507     -1.85931891363364     -0.70698861916337
H          -4.41233005196803     -1.79426891356283      1.06923738121782
H          -2.21281117312006      2.17574341514422     -0.01014627622221
*
