!B3LYP aug-cc-pVTZ d3 TightSCF SlowConv RIJCOSX defgrid2

%pal
nprocs 15
end

%scf
MaxIter 1500
end

%maxcore 3500

!CPCM
%cpcm smd true
SMDsolvent "WATER"
surfacetype gepol_ses
rsolv 1.40
end

* xyz -1 2
C           0.00000004903308      0.00000285676658     -0.07927677165041
C          -1.16509262301003     -0.35747694639887      0.71050337241250
C           1.16509408020432      0.35747595685912      0.71050209383188
H          -2.06362612463752     -0.63312787458135      0.14412716721423
H           2.06363121454948      0.63312802636862      0.14412668715351
C          -1.16509507944368     -0.35747268029138      2.08215495800193
C           1.16509160172280      0.35747686687021      2.08215370735606
H          -2.06363192155032     -0.63312031850306      2.64853168475760
H           2.06362610689310      0.63313254757272      2.64853030477196
C           0.00000131049034     -0.00000637822162      2.87193489848665
O           0.00000216772010     -0.00000733437022      4.12586654778909
O          -0.00000078197165     -0.00000472207076     -1.33320665012500
*
