!PBE0 freq aug-cc-pVTZ d3 TightSCF SlowConv RIJCOSX defgrid2

%pal
nprocs 12
end

%scf
MaxIter 1500
end

%maxcore 5000

!CPCM
%cpcm smd true
SMDsolvent "MeCN"
surfacetype gepol_ses
rsolv 2.19
end 

* xyz 0 1
C           0.93828338159986     -1.26522923136787     -0.00015147456942
C           2.30497409582440     -1.02789936094930     -0.00065662783239
C           2.78219404948867      0.27404285315626     -0.00041336863360
C           1.88645561974864      1.33920439274821      0.00047593213869
C           0.52365856875859      1.10618536265654      0.00089271854930
C           0.03464627351208     -0.20324843864205      0.00045174866478
C          -1.39120690544420     -0.50956730469341      0.00070295115610
N          -2.27091535150137      0.40802385214340     -0.00173675735925
O          -3.55210545390938     -0.11048326024825     -0.00071377106989
H          -4.11493138090143      0.67352195536732     -0.00195330838145
H          -1.68886894221446     -1.55852289950830      0.00326772814685
H          -0.17149471967468      1.93625343024244      0.00174797184648
H           2.25724005121912      2.35718347448201      0.00029338171939
H           3.84899063821232      0.46219937991130     -0.00104679656961
H           2.99668728058061     -1.86143451367510     -0.00117682490673
H           0.56408719470124     -2.28282799162321      0.00022389710077
*
