!PBE0 def2-SV(p) Opt Freq d3 TightSCF SlowConv RIJCOSX defgrid2
 
%pal
nprocs 4
end
 
%scf
MaxIter 1500
end
 
%maxcore 3000
 

 
* xyz 1 2
C     1.3588435    0.0026076   -0.0000096 
C     0.7503531    1.2753004   -0.0000096 
C    -0.6112539    1.3780750   -0.0000007 
C    -1.4305948    0.2167393    0.0000092 
C    -0.8138455   -1.0569819    0.0000094 
C     0.5516069   -1.1551018    0.0000003 
H     1.0250427   -2.1247385    0.0000005 
H    -1.4103788   -1.9549640    0.0000165 
O    -2.7258932    0.4335684    0.0000173 
C    -3.6610469   -0.6290384    0.0000276 
H    -4.6406541   -0.1549749    0.0000326 
H    -3.5515749   -1.2483093   -0.8936058 
H    -3.5515628   -1.2483028    0.8936641 
H    -1.1018533    2.3384903   -0.0000009 
H     1.3554217    2.1687819   -0.0000175 
S     3.0728504   -0.2129301   -0.0000194 
H     3.4096354    1.0843592   -0.0000273
*
