!PBE0 opt def2-SV(p) d3 TightSCF SlowConv RIJCOSX defgrid2

%pal
nprocs 8
end

%scf
MaxIter 1500
end

%maxcore 3500

!CPCM
%cpcm smd true
SMDsolvent "MeCN"
surfacetype gepol_ses
rsolv 2.19
end 

* xyz 0 1
C           0.69340039581910     -1.21642473703122     -0.00210106158208
C          -0.69454855654644     -1.22021347444475     -0.00107333204799
C          -1.36154262322334      0.00187791219067      0.00026242389151
C          -0.68604253118331      1.21670210566519      0.00055618520570
C           0.70509440805818      1.20392227540601     -0.00053641990430
C           1.40455093160228     -0.00927557523456     -0.00186311158295
C           2.90624055769532     -0.08463588452950     -0.00286199019476
O           3.45693707307488     -1.16143789750676     -0.00328851772908
C           3.69101592073766      1.20331719293128     -0.00349620755262
H           3.45502261169039      1.81064521986950      0.88792921534318
H           4.76399312425029      0.96314274578425     -0.00608195367514
H           3.45097324706094      1.81300927441323     -0.89217068832087
H           1.24208602358160      2.15534045576678     -0.00026184416090
H          -1.25661571978578      2.14643950150070      0.00165091333299
N          -2.83358313105393      0.00969549364775      0.00154754521515
O          -3.38285340798047      1.08799719381857      0.00256173004398
O          -3.39352955523644     -1.06261620732784      0.00148372469125
H          -1.27233938255821     -2.14567385267397     -0.00122499566180
H           1.26268251399728     -2.14919824224534     -0.00306631531128
*
