!r2SCAN freq aug-cc-pVTZ d3 TightSCF SlowConv RIJCOSX defgrid2

%pal
nprocs 12
end

%scf
MaxIter 1500
end

%maxcore 5000

!CPCM
%cpcm smd true
SMDsolvent "MeCN"
surfacetype gepol_ses
rsolv 2.19
end 

* xyz 0 1
C           2.39799904774097     -0.84170475013996      0.66406186184395
C           1.27130253107814     -0.39260604914774     -0.03534333457165
C           1.38288684509620      0.77897078387100     -0.79507492654858
C           2.58785637187567      1.46565656385727     -0.87059517869341
C           3.70206262570835      1.00446509840193     -0.17559128812917
C           3.60115478910062     -0.15051916781221      0.59414887047724
H           4.45913094691557     -0.50890785498132      1.15109179288271
H           4.63936521203849      1.54579130160377     -0.22693072274349
H           2.65686826982401      2.36366188403640     -1.47348014698033
H           0.52193686267628      1.14468073127389     -1.34241840189250
C          -0.00000891725154     -1.15255927902960      0.00013134891559
C           0.00003883193952     -2.49486069605219      0.00007775196521
H          -0.92264564046574     -3.05824706412729      0.06617450497562
H           0.92276553225265     -3.05817249407437     -0.06609371056772
C          -1.27136215764240     -0.39267921887755      0.03555096372824
C          -2.39793214639787     -0.84165577106647     -0.66412172785698
C          -3.60104711114163     -0.15036935348116     -0.59446331435686
C          -3.70204116483577      1.00460436363500      0.17527368647783
C          -2.58798593716891      1.46563725530105      0.87060932343335
C          -1.38310665933081      0.77880314275481      0.79536382775196
H          -0.52234149854255      1.14427651909681      1.34314395752249
H          -2.65705336033089      2.36360671528818      1.47354062699638
H          -4.63929835356913      1.54603177658647      0.22637667217744
H          -4.45892150504286     -0.50867216442773     -1.15161894760940
H          -2.32087101818649     -1.72897490068561     -1.28160622725007
H           2.32101750366014     -1.72905137180337      1.28151623805214
*
