!TPSSh aug-cc-pVTZ d3 TightSCF SlowConv RIJCOSX defgrid2
 
%pal
nprocs 4
end
 
%scf
MaxIter 1500
end
 
%maxcore 3000
 
!CPCM
%cpcm smd true
SMDsolvent "MeCN"
surfacetype gepol_ses
rsolv 2.19
end 
 
* xyz 0 1
C          -0.89224376281729     -0.45495718467486     -0.01145470130558
C          -2.16594085102826      0.11833701228886      0.04668156393021
C          -2.30980722961896      1.50552350730743      0.05266514185606
C          -1.18730292615774      2.32642588045932     -0.00578599682476
C           0.07848662017989      1.74980637635100     -0.06895843233769
C           0.26274712675783      0.36232202146058     -0.06567493940899
C           1.58397696911678     -0.26992063342449     -0.12469546497205
C           2.76363236463117      0.32107143728729      0.12304590513021
C           4.08799267811931     -0.36052851109315      0.03291116341555
H           3.98056842183658     -1.41840521263657     -0.26057190910370
H           4.74505082715594      0.13479691399593     -0.70730718173092
H           4.62530006868567     -0.32442135861975      0.99958986880157
H           2.78503020251791      1.37712737104795      0.42569396767337
H           1.57849606749139     -1.33419620856152     -0.38398649131753
H           0.95757732762518      2.39636581691597     -0.14038478463746
H          -1.29519718094620      3.41448711016187     -0.01311105785373
H          -3.31277371923385      1.94023584815831      0.09753461625361
H          -3.05632729029775     -0.51114095186127      0.09086976233295
O          -0.67674575407500     -1.78893966045310     -0.01378813421896
C          -1.76950811946695     -2.65856738104043      0.02444914878564
H          -2.43311749477465     -2.52415123007072     -0.85159816615208
H          -2.36466392584911     -2.52857531091088      0.94882566481095
H          -1.35670891985190     -3.67848395208777      0.00674595687332
*
