18
Coordinates from ORCA-job cs_rporg_002_ox_opt_04 E -422.378997391884
  C          -0.70873214968839     -1.06385464669303     -0.00236936178152
  C          -1.29230177934923      0.22910340064108     -0.00039494156785
  C          -0.48182597226192      1.39933380294942     -0.00087484579863
  C           0.86882442353281      1.28061867550054     -0.00111887851576
  C           1.46495367015680     -0.00923135951044     -0.00121869975751
  C           0.64553163102662     -1.17247283792984     -0.00253266481188
  H           1.11718996074589     -2.14545524012575     -0.00326095465956
  C           2.85014592386048     -0.14030943558968      0.00059249818695
  C           4.05516695559659     -0.25725316514713      0.00231127699690
  H           5.11951029591224     -0.35743206814337      0.00340216294341
  H           1.50295622774901      2.15600774293328     -0.00137126536051
  H          -0.97101450265842      2.36417361224731     -0.00003507937159
  O          -2.57369386688086      0.44198722871565      0.00206145274520
  C          -3.49933439989844     -0.65903663937085      0.00182986743393
  H          -4.48362796273978     -0.20265043256057     -0.00044064386388
  H          -3.35758217804964     -1.26041520469620     -0.89493985377432
  H          -3.36084422322525     -1.25838654718011      0.90061985780170
  H          -1.32957745382848     -1.94724478604030     -0.00205792684508
