!PBE0 freq def2-SV(p) d3 TightSCF SlowConv RIJCOSX defgrid2

%pal
nprocs 12
end

%scf
MaxIter 1500
end

%maxcore 5000

!CPCM
%cpcm smd true
SMDsolvent "MeCN"
surfacetype gepol_ses
rsolv 2.19
end 

* xyz 1 2
C           0.86959187398476     -1.42690603400123     -0.00084286444389
C           2.10274604692155     -0.72691826550296      0.00067898158094
C           2.17715767477914      0.67914152923841     -0.00018202781481
C           1.02949688304484      1.45017953734302     -0.00128391088923
C          -0.22429984276877      0.77451096287471     -0.00156989775738
C          -0.24891335922138     -0.64528895015976     -0.00248808034776
O          -1.55152882399993     -1.07928329441515     -0.00284024228092
C          -2.31198724157095     -0.00461755956580     -0.00020231667982
C          -1.55888456592560      1.18383320136613      0.00041224596801
H          -1.96673677189330      2.19392069867628      0.00334580584820
H          -3.39135951330175     -0.16395352528590      0.00256044092833
H           1.06982393237516      2.54153379887266     -0.00194363097757
H           3.15826112279509      1.15898942565008      0.00061394948436
H           3.02837859066229     -1.30882250028668      0.00350716047308
H           0.82731549411887     -2.51735842480378      0.00030498690846
*
