!COSMORS(Water)

%pal
nprocs 15
end



%maxcore 3500



* xyz -1 2
C          -0.06058974015319     -0.02786640637996     -0.06636687374245
C          -0.02915253757207      1.41200889322469      0.08669635331984
C           0.02798442423532      2.03233434330205      1.32981811902407
C           0.05891841826264      1.28851377532912      2.57222906271290
C           0.02788466230184     -0.17442785622153      2.44488354658359
C          -0.02912762559812     -0.80604792656199      1.17894588306731
C          -0.05600083532212     -2.21190043304611      1.11490808218194
C          -0.02778223638882     -2.97912152092029      2.26676120872945
C           0.02864253401367     -2.35043181295908      3.52692854346035
C           0.05574276936416     -0.96875665770795      3.60660845784379
H           0.09961725693663     -0.44137362844551      4.56397519772263
H           0.05097367878843     -2.95610213708649      4.44040440744309
H          -0.04909796692647     -4.07320599895043      2.20123731713864
H          -0.09984497496410     -2.65971392423461      0.11785465933687
C           0.06118565181994      3.52761243856941      1.44630550499102
H          -0.83631875455019      3.99924775120952      0.99973118694746
H           0.10955815705607      3.79661097587730      2.51364550587021
H           0.93630443757164      3.96465252836867      0.92646488630537
C          -0.06070223464566      2.21802482702039     -1.17830606330920
H           0.83706819273596      2.85838996312933     -1.28473705482212
H          -0.10791860033235      1.52690469530484     -2.03502370536211
H          -0.93579834377862      2.89621056380490     -1.21654993473529
O           0.10927738480662      1.83885022543947      3.69657300623271
O          -0.11082371766120     -0.59470609206575     -1.18250068694010
*
