!TPSSh aug-cc-pVTZ d3 TightSCF SlowConv RIJCOSX defgrid2
 
%pal
nprocs 4
end
 
%scf
MaxIter 1500
end
 
%maxcore 3000
 
!CPCM
%cpcm smd true
SMDsolvent "MeCN"
surfacetype gepol_ses
rsolv 2.19
end 
 
* xyz 1 2
  C          -0.51166320460813      1.22812669775511      0.04221064338961
  C          -1.88952625296000      1.21539539176763      0.05617367919047
  C          -2.59180844712688      0.00013116204188     -0.01880666295911
  C          -1.89049624956733     -1.21520671526456     -0.10134329816321
  C          -0.51256019966680     -1.22809524037907     -0.10227638476799
  C           0.21731408963535     -0.00001586789402     -0.03400404554273
  N           1.56995492990017     -0.00005133599829     -0.04140778831312
  C           2.34433477639579      1.21948603186316     -0.20492690765417
  H           3.31457999055289      0.96026373998418     -0.65302403936483
  H           1.83135324244622      1.92816869292227     -0.86818407839005
  H           2.52747752953805      1.69293789980228      0.77768636738438
  C           2.34605804905977     -1.21960114143284      0.11365277395931
  H           3.32105951761834     -0.96038019427341      0.55132163130194
  H           1.84024142677529     -1.92835608634421      0.78230594720200
  H           2.51862728476156     -1.69296466175821     -0.87090867989595
  H           0.01065172080766     -2.18040178328804     -0.19486548078037
  H          -2.43851884091908     -2.15821605280130     -0.17289394083341
  H          -3.68523926435270      0.00018625586019     -0.01289591193808
  H          -2.43664007610670      2.15846249523866      0.13367176321164
  H           0.01262657781651      2.18036711219859      0.12915381296366
*
