21
Coordinates from ORCA-job cs_rporg_w10_ox_opt_01 E -573.371434196225
  C           0.05740703362366     -0.03818478987782     -0.05305252362433
  C           0.04752787284548      1.43042672917474      0.09288134793546
  C           0.00865823360556      2.06419843064535      1.28313969477442
  C          -0.02631367755515      1.27331877582174      2.55115567713606
  C          -0.01924382659142     -0.21029957823671      2.44828393846160
  C           0.02139111377803     -0.84476466741681      1.19738932390815
  C           0.02778920782920     -2.23769356254970      1.12126987378335
  C          -0.00634981044020     -2.99663523812184      2.28791660064124
  C          -0.04698344076028     -2.36584188207955      3.53454063211562
  C          -0.05333228207351     -0.97623991811648      3.61522849103236
  H           0.07423269005991      1.98647405476100     -0.84970518486997
  H          -0.08462573760684     -0.45717520913165      4.57653406994510
  H          -0.07388405763115     -2.96530465276422      4.44922462797787
  H          -0.00147351819034     -4.08899982107002      2.22872595641621
  H           0.05990452710164     -2.70205720690776      0.13238845062488
  C          -0.00206079517557      3.54702899649423      1.43475658835013
  H          -0.90223963443982      3.87118144099815      1.98551534688661
  H           0.85990766484548      3.87826240212472      2.03977796655726
  H           0.02634952855796      4.05066472850984      0.45627956358589
  O          -0.05966185780097      1.83961965072649      3.62552534412724
  O           0.09300076601833     -0.55701475298369     -1.15202852476517
