!B3LYP aug-cc-pVTZ d3 TightSCF SlowConv RIJCOSX defgrid2
 
%pal
nprocs 4
end
 
%scf
MaxIter 1500
end
 
%maxcore 3000
 
!CPCM
%cpcm smd true
SMDsolvent "MeCN"
surfacetype gepol_ses
rsolv 2.19
end 
 
* xyz 0 1
C          -2.35855566249028     -1.18298734946581      0.44746508492782
C          -3.63998601494038     -0.64494677752617      0.40531310745406
C          -3.85303233632332      0.64184728390947     -0.08922899701963
C          -2.76160264019232      1.37149847988341     -0.55944574759612
C          -1.47660109339583      0.83661893600173     -0.53774129143291
C          -1.25440681594945     -0.45059005524099     -0.02098393310126
N          -0.00000421351286     -1.04691099052655     -0.00000634656969
C           1.25440223898594     -0.45059921009457      0.02097107702327
C           1.47660100518815      0.83661344736755      0.53772022597142
C           2.76160709047823      1.37148092391060      0.55943972704073
C           3.85303807972459      0.64181530245744      0.08924769050056
C           3.63998848210222     -0.64498151368667     -0.40528711196994
C           2.35855298180034     -1.18301040091692     -0.44745622777963
H           2.19908895406864     -2.18668027905193     -0.85522438065874
H           4.48199840421952     -1.23797876876707     -0.77528111411611
H           4.85916686280388      1.06886680223861      0.11285453118115
H           2.91087680856629      2.37556477081901      0.96852154939093
H           0.64246040679070      1.40934002015136      0.94801182020360
H          -0.00000725820461     -2.05910419744794     -0.00000990999799
H          -0.64246082169541      1.40933334107559     -0.94805093043179
H          -2.91086965745103      2.37558015369041     -0.96853357662371
H          -4.85915726714274      1.06890811498503     -0.11281791601209
H          -4.48199557743319     -1.23793238163885      0.77532568830103
H          -2.19909265599709     -2.18665445212673      0.85523908131503
*
