!PBE0 def2-SV(p) Opt Freq d3 TightSCF SlowConv RIJCOSX defgrid2
 
%pal
nprocs 8
end
 
%scf
MaxIter 1500
end
 
%maxcore 3000
 
* xyz -1 2
6       -3.596822500      2.123945500      0.165084500
6       -4.886509000      1.619625000      0.187059500
6       -2.444104000      1.287362500     -0.030051000
6       -2.710426000     -0.107254500     -0.302743500
6       -4.007898000     -0.610868500     -0.242814500
6       -5.119536000      0.236737000      0.022349000
6       -1.152865000      2.001807500      0.000653500
6        0.142889014      1.341387508      0.252906301
6        1.286213013      2.207443172      0.151839079
6        2.581689080      1.753606623      0.335883911
6        2.831532897      0.394887475      0.627986554
6        1.719813562     -0.475929830      0.805202997
6        0.411555436     -0.020552518      0.657383331
8       -1.192220000      3.267204500      0.000584000
1       -4.151193500     -1.698416500     -0.453551500
1       -6.137457000     -0.167182000      0.062486000
1       -3.404294500      3.198868000      0.294917000
1       -5.734901000      2.315616000      0.343647000
1       -1.901174500     -0.833490000     -0.701091000
1       -0.422050858     -0.749869321      0.996511873
1        3.857245088      0.029094389      0.751024817
1        1.865569080     -1.540575190      1.110131446
1        1.080800862      3.262913517     -0.078718242
1        3.422542539      2.470097090      0.242982782
*
