!PBE0 freq def2-SV(p) d3 TightSCF SlowConv RIJCOSX defgrid2

%pal
nprocs 12
end

%scf
MaxIter 1500
end

%maxcore 5000

!CPCM
%cpcm smd true
SMDsolvent "MeCN"
surfacetype gepol_ses
rsolv 2.19
end 

* xyz 1 2
C           1.35096177798411      0.00320483975435     -0.00077043806995
C           0.74991554549849      1.29205730990985     -0.00326316713181
C          -0.61239222511307      1.40236297263298     -0.00218894393609
C          -1.42820401063555      0.23266251158990     -0.00064112642261
C          -0.83078920919429     -1.05705124878037     -0.00284947186734
C           0.53522191143777     -1.16408187441327     -0.00214210673003
H           0.99967502961865     -2.15411473024710     -0.00254118738187
H          -1.44427635392271     -1.95880709959699     -0.00323723450668
O          -2.71583135401087      0.44037501797413      0.00262110065184
C          -3.64221689770630     -0.64449170269812      0.00218398372153
H          -4.63774139172710     -0.18237897304930      0.00455169489209
H          -3.51297985973266     -1.25523005197385     -0.90561438106253
H          -3.51056030369750     -1.25900120889395      0.90722705232160
H          -1.10345122199402      2.37801101235680     -0.00181265167161
H           1.37439302548376      2.18898027058616     -0.00607399004073
S           3.04525763454257     -0.23129685277232      0.00655256311453
H           3.40811340316874      1.08138020762109      0.00808500411966
*
