!TPSSh aug-cc-pVTZ d3 TightSCF SlowConv RIJCOSX defgrid2

%pal
nprocs 15
end

%scf
MaxIter 1500
end

%maxcore 3500

!CPCM
%cpcm smd true
SMDsolvent "WATER"
surfacetype gepol_ses
rsolv 1.40
end

* xyz 0 2
O           1.86556239468452      3.66778063685740      1.41934048443660
N           2.63911006242494      2.68933162619386      1.23001507884931
C           3.73080247656957      2.90535757443730      0.24181063762861
C           4.36093762959910      1.55921653542741     -0.15336987209592
C           4.63172810194409      0.70262118274796      1.05667158740786
C           3.37344672734739      0.39530870243854      1.82691342143050
C           2.68993700964555      1.68066650325082      2.32342254966252
C           4.79147854810668      3.83582820328657      0.84153155747969
C           3.10645949127391      3.55822382808877     -0.98811835641252
C           3.44599743934561      2.26113926142754      3.52426459340538
C           1.24931104144319      1.37171748445294      2.72213530312512
H           5.29854507645140      1.73380073454675     -0.70282077300820
H           3.66072621433755      1.01505886466252     -0.81307937183032
H           3.61014563723972     -0.25605158453535      2.68210471533816
H           2.67928631607287     -0.14191365883771      1.15513451843579
H           4.29973116397687      4.72680814583179      1.26491139664203
H           5.37961996772319      3.34202382093710      1.63164483429192
H           5.49413089896826      4.16049866008557      0.05546712960242
H           2.69205521882801      4.54458266598734     -0.73348635939669
H           2.28924200187458      2.93262822416028     -1.38514477797188
H           3.87286307615791      3.67858497187703     -1.77227016899908
H           3.04871559772316      3.26304759444425      3.75501562998363
H           4.52927071669545      2.33887771005461      3.33785198450762
H           3.30430449817939      1.61369753756705      4.40621306394055
H           0.75896130686192      2.26873651212742      3.12797736173082
H           0.67080790712862      1.02777195958958      1.84800524786398
H           1.24122074344172      0.57661748497107      3.48643408439020
O           5.73186456195476      0.33572713792153      1.38978502456186
*
