14
Coordinates from ORCA-job cs_rporg_162_red_opt_07 E -416.732940981788
  C          -1.21233563227995     -0.03820830874744      0.00001326549601
  C          -1.21575003866861      1.41119717657405     -0.00020665490230
  C           0.00004530652022      2.07598196027582     -0.00000198739270
  C           1.21580961369173      1.41114238650158      0.00020618027081
  C           1.21233143505262     -0.03826190508037      0.00002048751552
  C          -0.00001836648918     -0.72444842632062      0.00002791294970
  H          -0.00004107166497     -1.80649467014772      0.00001857500019
  C           2.41066003242928     -0.76064289215134     -0.00016289070102
  N           3.41950997490007     -1.34259165964597     -0.00032238648176
  H           2.15183270229589      1.94915587552898      0.00084429041726
  H           0.00007297881017      3.15966212032222     -0.00001067841371
  H          -2.15174942404600      1.94925316256275     -0.00086226388611
  C          -2.41069922733245     -0.76053284676291      0.00017534670561
  N          -3.41957738321884     -1.34243227290904      0.00031170342250
