!PBE0 freq aug-cc-pVTZ d3 TightSCF SlowConv RIJCOSX defgrid2

%pal
nprocs 12
end

%scf
MaxIter 1500
end

%maxcore 5000

!CPCM
%cpcm smd true
SMDsolvent "MeCN"
surfacetype gepol_ses
rsolv 2.19
end 

* xyz 0 1
  C           2.39075917578928     -0.83582311035521      0.66499765990718
  C           1.27006167692916     -0.39264493472046     -0.03856886143999
  C           1.38196611521030      0.77095231648524     -0.80159049136293
  C           2.58311561399557      1.45818703425694     -0.87585092262307
  C           3.69269875676281      1.00343064089749     -0.17618076583884
  C           3.59094724222557     -0.14541688213977      0.59642838324553
  H           4.44717574569255     -0.50015761425320      1.15767555901241
  H           4.62924563803725      1.54567973442254     -0.22692331430778
  H           2.65227402713889      2.35382364682031     -1.48162247083454
  H           0.52284150452882      1.13417977001978     -1.35242374216864
  C           0.00001155084007     -1.15135510874727     -0.00024760309470
  C          -0.00004725663746     -2.48859726260858     -0.00025886529787
  H          -0.92218794026990     -3.05285838915142      0.06810348430361
  H           0.92201381356633     -3.05300294842390     -0.06862496201244
  C          -1.26996893845707     -0.39252501569392      0.03814834806280
  C          -2.39089130031063     -0.83576246108085     -0.66503983828759
  C          -3.59115539470969     -0.14558111611181     -0.59593941622656
  C          -3.69272759903851      1.00331762581176      0.17660450665541
  C          -2.58288149877530      1.45835033851823      0.87569014809519
  C          -1.38176180093738      0.77113474019422      0.80106762385207
  H          -0.52260094313273      1.13427789684328      1.35190281348817
  H          -2.65177391683262      2.35403706889445      1.48145226460162
  H          -4.62932369755086      1.54537755359280      0.22772252232031
  H          -4.44760644730912     -0.50066776601837     -1.15671248532518
  H          -2.31347389448400     -1.72053890703762     -1.28556422360845
  H           2.31305966772869     -1.72061085041469      1.28547814888424
*
