!PBE0 freq aug-cc-pVTZ d3 TightSCF SlowConv RIJCOSX defgrid2

%pal
nprocs 12
end

%scf
MaxIter 1500
end

%maxcore 5000

!CPCM
%cpcm smd true
SMDsolvent "MeCN"
surfacetype gepol_ses
rsolv 2.19
end 

* xyz 1 2
C           1.33229301766793      0.00044527198073     -0.00137577048951
C           0.74342991092902      1.28667337397483     -0.00398845095629
C          -0.60945514956531      1.40268437665037     -0.00297946972195
C          -1.42196193086586      0.23954706443983     -0.00107347901934
C          -0.83720157036608     -1.04753549992445     -0.00347534271068
C           0.51994111089584     -1.15943566972122     -0.00297970177505
H           0.98136327012338     -2.13904787716329     -0.00347171059132
H          -1.45355612193092     -1.93404161957637     -0.00381760365303
O          -2.71050599582301      0.45438137505686      0.00275649650958
C          -3.62370108139036     -0.65244445471271      0.00287050775066
H          -4.61368081376191     -0.20756805571954      0.00574501686968
H          -3.48350689879627     -1.25241736768670     -0.89572385518243
H          -3.48002228412546     -1.25602510022073      0.89861934548940
H          -1.09211291541685      2.37098116389652     -0.00274736532991
H           1.37024842716595      2.16859281915883     -0.00705831658169
S           3.02330531887701     -0.23305766216015      0.00645522282199
H           3.38021920638290      1.07084826172718      0.01233117656988
*
