!PBE0 aug-cc-pVTZ d3 TightSCF SlowConv RIJCOSX defgrid2
 
%pal
nprocs 4
end
 
%scf
MaxIter 1500
end
 
%maxcore 3000
 
!CPCM
%cpcm smd true
SMDsolvent "MeCN"
surfacetype gepol_ses
rsolv 2.19
end 
 
* xyz 1 2
C           4.10305459754862      1.22314281313599      0.00027521208978
C           4.79422039490347      0.00010404925663      0.00001474520982
C           4.10316750393443     -1.22299872812941     -0.00027809333468
C           2.72290951060849     -1.23322125226980     -0.00030728966902
C           2.00889918594533     -0.00002719804681     -0.00003028315102
C           2.72279658019783      1.23323312421706      0.00025720757138
H           2.16604305248318      2.17317802213121      0.00045841677356
C           0.61901432200333     -0.00007429013767     -0.00003574573307
C          -0.61901896459109     -0.00007733941421     -0.00002817694639
C          -2.00890183862324     -0.00001737756946      0.00000366265820
C          -2.72291439835066     -1.23320607784155      0.00031293455070
C          -4.10317069141964     -1.22298169255025      0.00034320554116
C          -4.79421968584138      0.00012496763477      0.00007504669623
C          -4.10304842490867      1.22316147289229     -0.00022860923121
C          -2.72279167353165      1.23324700039037     -0.00027265723971
H          -2.16603414552242      2.17318982303946     -0.00050220004345
H          -4.65909006495211      2.16415224923801     -0.00043329601508
H          -5.88829015885600      0.00017960004272      0.00010113825142
H          -4.65930720000531     -2.16391674544739      0.00057854154628
H          -2.16624983163931     -2.17320454462336      0.00052121598527
H           2.16624496851568     -2.17322025060010     -0.00052876061055
H           4.65930013671208     -2.16393287374248     -0.00048580415313
H           5.88829198918564      0.00015431021773      0.00003862697270
H           4.65910043620338      2.16413103817623      0.00049636228080
*
