!PBE0 freq def2-SV(p) d3 TightSCF SlowConv RIJCOSX defgrid2

%pal
nprocs 12
end

%scf
MaxIter 1500
end

%maxcore 5000

!CPCM
%cpcm smd true
SMDsolvent "MeCN"
surfacetype gepol_ses
rsolv 2.19
end 

* xyz 1 2
  C           0.88016936541642     -1.21468499151838     -0.00095990198553
  C           1.23439549744167      0.17328112249567     -0.00127582840855
  C           0.19384773490402      1.14337913552059     -0.00175852180010
  C          -1.13681883949216      0.78766978673928     -0.00104281792165
  C          -1.47187657070694     -0.61023912639911     -0.00053820350777
  C          -0.44026913383199     -1.58105465647811     -0.00072172574846
  H          -0.71326646969541     -2.63906265684587      0.00000349430581
  C          -2.89027946761826     -1.03499640268241      0.00090217184634
  H          -2.99158977867672     -2.13006933033790     -0.00393743325727
  H          -3.42078051957961     -0.62160627358740     -0.87784773242746
  H          -3.41496665640658     -0.63081280424664      0.88760153717337
  C          -2.21433356589203      1.82025645823566     -0.00064123534174
  H          -2.86454297961644      1.71692219893240      0.88666078987653
  H          -2.86449452420404      1.71743406795692     -0.88803682748853
  H          -1.78860954397013      2.83526642949734     -0.00041359962501
  H           0.47225063761820      2.20066125674644     -0.00297849079560
  C           2.58390701278495      0.62328667708270      0.00003536340026
  C           3.69174548097477     -0.18525973258258      0.00159440285863
  H           3.62984065913446     -1.27840419314513      0.00082607686216
  H           4.69211418945663      0.26004576607219      0.00347241442403
  H           2.73578886184781      1.70804476648404     -0.00024286757759
  H           1.65500541011141     -1.98348629793966     -0.00116756486189
*
