!r2SCANh aug-cc-pVTZ d3 TightSCF SlowConv RIJCOSX defgrid2
 
%pal
nprocs 4
end
 
%scf
MaxIter 1500
end
 
%maxcore 3000
 
!CPCM
%cpcm smd true
SMDsolvent "MeCN"
surfacetype gepol_ses
rsolv 2.19
end 
 
* xyz 0 1
  C          -1.20570013774955     -1.10039697930563      0.01543175480109
  C           0.00111933111067     -1.79372463480323      0.03716937828290
  C           1.21118544677794     -1.10088196681091      0.03388616244552
  C           1.22835326598804      0.29682839071349      0.00494538015242
  C           2.52368903063881      1.05844071578900     -0.03593104667324
  H           2.48341162103777      1.96024689395608      0.59889265106332
  H           3.36770598220524      0.43706826741282      0.30599555459239
  H           2.75516930508487      1.39410942865254     -1.06399807973417
  C           0.00347119857744      0.97499778484913     -0.01291371518520
  C          -1.22031342403745      0.30000889914392     -0.00614524998718
  C          -2.51971268891073      1.05570005797022      0.00936042521607
  H          -2.39731022829722      2.08016889230358     -0.37956919154311
  H          -2.91823280700184      1.13851573828558      1.03779552551247
  H          -3.28893296665078      0.54842098009693     -0.59747808691160
  H           0.00394355087374      2.07111276662115     -0.03278330541863
  H           2.15666081819569     -1.65279950277184      0.05208747237142
  H           0.00027512568056     -2.88802960033678      0.05674445713596
  H          -2.15204978452320     -1.65147955576605      0.01700562287958
*
