!TPSSh aug-cc-pVTZ d3 TightSCF SlowConv RIJCOSX defgrid2
 
%pal
nprocs 4
end
 
%scf
MaxIter 1500
end
 
%maxcore 3000
 
!CPCM
%cpcm smd true
SMDsolvent "MeCN"
surfacetype gepol_ses
rsolv 2.19
end 
 
* xyz 0 1
C           1.57085042838004     -1.17474438788844     -0.33321365208336
C           2.96192041551293     -1.15651629940685     -0.31860147015010
C           3.64782695539498      0.00855864334947      0.02599003748590
C           2.92361947907694      1.15458909719340      0.34785674698480
C           1.53060388669529      1.13435322432905      0.32993520415109
C           0.82328467622844     -0.03397612396155      0.00340161993556
C          -0.65741272614693     -0.04733327290659      0.00534536563332
C          -1.35282390658214     -1.16758358658154      0.27962064543062
C          -2.84853700806778     -1.25828591796901      0.30847424531628
C          -3.51990150406660      0.11087068594057      0.31565142940002
C          -2.83381225328130      1.04341808051259     -0.67327419385531
C          -1.37142433850592      1.25026584913834     -0.29589644947955
H          -0.83991530281643      1.78116962585690     -1.10618334228773
H          -1.30989672858064      1.91765444185113      0.58676465237026
H          -3.35148405171204      2.01729252554914     -0.71973408682922
H          -2.89053837289839      0.60490265207129     -1.68762863260766
H          -4.59471066896096      0.01138665951998      0.08467603040594
H          -3.45292200027469      0.54772553729573      1.33001780873961
H          -3.19002868806132     -1.84280149491509     -0.57088642583127
H          -3.16602339134086     -1.84941487747488      1.18737448619474
H          -0.80474635256816     -2.08768769328037      0.51396987653596
H           0.98362946668811      2.04390039060663      0.59144870231404
H           3.44740931149543      2.07717728450666      0.61616083395012
H           4.74164950120465      0.02477698912015      0.03349122220482
H           3.51725863806072     -2.05891161890825     -0.59221005705267
H           1.04979053512663     -2.08648421354846     -0.63790469687620
*
