!PBE0 def2-SV(p) Opt Freq d3 TightSCF SlowConv RIJCOSX defgrid2

%pal
nprocs 15
end

%scf
MaxIter 1500
end

%maxcore 3500

 

* xyz 0 2
O        1.892148000      3.698010000      1.453118000
N        2.679299000      2.707472000      1.243603000
C        3.790696000      2.928351000      0.306337000
C        4.407191000      1.603078000     -0.074600000
C        4.673841000      0.680853000      1.061864000
C        3.381122000      0.396215000      1.757075000
C        2.704898000      1.678223000      2.337211000
C        4.793300000      3.830082000      0.961074000
C        3.182734000      3.627420000     -0.941233000
C        3.472850000      2.208787000      3.551450000
C        1.288453000      1.395862000      2.733227000
H        4.976756000      1.817126000     -0.895203000
H        3.824828000      1.202309000     -0.926948000
H        5.591117000      1.200032000      1.672157000
H        3.662704000     -0.118409000      2.827668000
H        2.468112000     -0.323348000      1.756281000
H        4.230136000      4.611128000      1.320584000
H        6.000692000      3.631975000      1.130115000
H        5.514322000      4.219466000      0.035713000
H        2.576906000      4.387972000     -0.761082000
H        2.235594000      2.907857000     -1.086466000
H        4.112810000      3.727613000     -1.578510000
H        2.815824000      3.199326000      3.745886000
H        4.330396000      2.356799000      2.674499000
H        3.199800000      1.286562000      4.341101000
H        0.486370000      2.236112000      3.064167000
H        0.678358000      1.029249000      1.818183000
H        1.104998000      0.710455000      3.492722000
C        5.564401994     -0.572797794      0.979034042
O        6.774376871     -0.561275393      0.866495800
O        4.860853049     -1.732359105      1.044470244
H        5.521060607     -2.442231685      0.983065170
*
