22
Coordinates from ORCA-job cs_rporg_010_red_opt_01 E -536.491275578161
  C           0.41599319251032     -1.69346177862022     -0.02279161454558
  C          -0.98199729558990     -1.81472676429341     -0.05134821794403
  C          -1.70677603729443     -0.64308652071241     -0.08326300415314
  C          -1.07495769550450      0.60196976211576     -0.08130065571313
  C           0.29269190626036      0.73274812090553     -0.04930153158760
  C           1.06792223663687     -0.45226147551338     -0.02238323387356
  C           2.53306012033092     -0.42784097336228      0.00411549390745
  C           3.33599029031163      0.64787454860086     -0.01298712184471
  C           4.82698252758222      0.59436334411775      0.01761658566321
  H           5.19519744878890     -0.44486528089433      0.05467264909477
  H           5.26493429112435      1.08145794661971     -0.87426846583011
  H           5.23044002906813      1.13215001785477      0.89657522514024
  H           2.89219341939334      1.65177321714680     -0.05310300701833
  H           3.00616156242134     -1.41849503169999      0.04140787797653
  H           0.75060774881743      1.72311804458948     -0.04152460092806
  O          -2.02238582974935      1.57759788099539     -0.08083816246866
  C          -3.25372937520391      0.92161898008569     -0.29920279195714
  H          -3.58643890672075      1.09093447235186     -1.34427577812255
  H          -4.00651814330382      1.30024105404657      0.41140327759572
  O          -3.05288326673628     -0.46068315840969     -0.08496008668725
  H          -1.47569728947849     -2.78849336669007     -0.04656446685497
  H           1.02272506633562     -2.60351753923440     -0.00236886984910
