17
Coordinates from ORCA-job cs_rporg_143_ox_opt_05 E -484.094333938222
  C          -0.02595369759475      1.19161884365003     -0.00052235133579
  C           1.36148104681987      1.22182778949415     -0.00022584210533
  C           2.03965393793107      0.01808913660672      0.00014535817934
  C           1.39736017312941     -1.20835020020960      0.00067519218639
  C           0.01328711258150     -1.21864412079044      0.00004443963075
  C          -0.71516263094953     -0.02434293331863     -0.00065837566449
  C          -2.20466807822205     -0.08632390937234     -0.00140189771980
  O          -2.78165389028868     -1.16361608165070     -0.00318592841764
  C          -2.98005968839021      1.20373975040213      0.00021440331604
  H          -2.73184877781190      1.80132180102909      0.87912086075356
  H          -2.73365874240221      1.80259507407146     -0.87843866980964
  H          -4.04470383809842      0.98535721263666      0.00117101231471
  H          -0.51969435774282     -2.15796529474714      0.00034958161246
  H           1.97220502993099     -2.12318091856948      0.00140140046494
  F           3.39488874417485      0.03784059684453      0.00010383910805
  H           1.90647006097469      2.15457089089827     -0.00039723566164
  H          -0.56357430404177      2.12755446302526     -0.00012218685190
