!COSMORS(Acetonitrile)
 
%pal
nprocs 20
end
 

 
%maxcore 3000
 

 
* xyz 1 2
C          -0.34387230731091     -1.07485258731093      0.00001401455947
C           1.01873873128556     -0.69031657008063      0.00000558569428
C           1.01870490582575      0.69036389318440     -0.00000682964124
C          -0.34392442171075      1.07483366235896      0.00001800846145
O          -1.13547856663301     -0.00002908301850      0.00002620600599
H          -0.83940000391177      2.04941022022650      0.00001956675718
H           1.87273127254573      1.37048388860066     -0.00002227053780
H           1.87279848731196     -1.37039565302222     -0.00000085844917
H          -0.83930199740254     -2.04945297093823      0.00002127714986
*
