!r2SCANh freq aug-cc-pVTZ d3 TightSCF SlowConv RIJCOSX defgrid2

%pal
nprocs 12
end

%scf
MaxIter 1500
end

%maxcore 5000

!CPCM
%cpcm smd true
SMDsolvent "MeCN"
surfacetype gepol_ses
rsolv 2.19
end 

* xyz 1 2
C          -0.70855827876135     -1.06415984401035     -0.00253912310191
C          -1.29048110885007      0.22897283966102     -0.00038427984072
C          -0.48127392991113      1.39958823446631     -0.00115880130993
C           0.87021855581982      1.28174317098550     -0.00130579798002
C           1.46753154660352     -0.00896157769532     -0.00124212853547
C           0.64649609128157     -1.17305691816846     -0.00272166122766
H           1.11737347478932     -2.14453697946811     -0.00351312863188
C           2.84987355043543     -0.14031874541158      0.00080422592238
C           4.05559979984322     -0.25770322888255      0.00274126613686
H           5.11721482837083     -0.35785274493599      0.00403038784337
H           1.50303472295414      2.15599715400300     -0.00168946521679
H          -0.97099086216359      2.36224739897105     -0.00080096483714
O          -2.57500147172444      0.44522930750444      0.00253549935526
C          -3.50376924257316     -0.66216979173413      0.00204275045070
H          -4.48435567037377     -0.20374929214070      0.00075870325041
H          -3.35848040200360     -1.25908407996313     -0.89421803141696
H          -3.36062370833100     -1.25854299264476      0.89915684286645
H          -1.32806329540573     -1.94615981053625     -0.00229429372693
*
