23
Coordinates from ORCA-job cs_rporg_018_red_opt_05 E -463.421598216097
  C          -0.32949817947928      0.79135784429113      0.00038008397024
  C          -1.61979361309541      0.25705847545570     -0.00038479618658
  C          -1.80001763216589     -1.12377956448797      0.00025286616540
  C          -0.67284981638706     -1.94697972115458      0.00205020153974
  C           0.60662121406795     -1.42276341341531      0.00286557058958
  C           0.79655056589439     -0.03026996449283      0.00169939374749
  C           2.12045461953209      0.60318773599433      0.00202407111278
  C           3.30612364724157     -0.01118931231997     -0.00195094461850
  C           4.62247951150395      0.69242190274814     -0.00114634100934
  H           5.21357508906182      0.41610915445610     -0.87935781886430
  H           5.21747645009128      0.40581457405433      0.87112473697016
  H           4.50256165822911      1.77627400840530      0.00538701662321
  H           3.35153542373865     -1.09567389949906     -0.00642889459009
  H           2.10608712725969      1.68944046165513      0.00547748248442
  H           1.45446931686678     -2.09216033412214      0.00496199492329
  H          -0.81020233800371     -3.02038139090384      0.00314243414756
  H          -2.78517942757283     -1.56277744317736     -0.00090220273966
  O          -2.63521496624351      1.16300713442978     -0.00193498234272
  C          -3.97431563922540      0.67002999334253     -0.00141574848025
  H          -4.61561453989735      1.54727948537357     -0.00195235271329
  H          -4.17561172673808      0.07424767439065      0.89115744541169
  H          -4.17582708813834      0.07328376178871     -0.89323819080421
  H          -0.21664545654040      1.86782583718766     -0.00055642533661
