23
Coordinates from ORCA-job cs_rporg_018_red_opt_06 E -463.406384564330
  C          -0.32987278842760      0.79830267427866      0.00081839026524
  C          -1.62055917908104      0.26314339989446     -0.00016380319915
  C          -1.80322407439920     -1.11927398865001      0.00064025791572
  C          -0.67535688345481     -1.94232972967717      0.00284584833516
  C           0.60567690015529     -1.41959378211321      0.00387673526415
  C           0.79691591997142     -0.02570839675581      0.00247250865607
  C           2.11719101143251      0.60547665441997      0.00298362409041
  C           3.30469640396330     -0.01249832033419     -0.00289059214141
  C           4.61664826036234      0.68911379399660     -0.00177774205338
  H           5.20855546092013      0.41172839894732     -0.88024534788406
  H           5.21362878816700      0.39848577451481      0.86895533716678
  H           4.49678436363597      1.77356771415288      0.00665679363807
  H           3.34841623785307     -1.09918004156649     -0.00934198618924
  H           2.10487292602547      1.69427457590357      0.00809219523073
  H           1.45504531282964     -2.09087816885837      0.00652815048029
  H          -0.81428646415558     -3.01768651776413      0.00425860224160
  H          -2.79084833075003     -1.55821763854730     -0.00056750462947
  O          -2.63198821888867      1.17019481891093     -0.00184369381849
  C          -3.96635037828972      0.66253132544297     -0.00232564571620
  H          -4.61496661283847      1.53532726794642     -0.00317330230806
  H          -4.15967102950254      0.06416507592397      0.89166548672298
  H          -4.15851465592430      0.06343448355595     -0.89601426782759
  H          -0.21562876960417      1.87698362637817     -0.00019544424014
