!PBE0 def2-SV(p) Opt Freq d3 TightSCF SlowConv RIJCOSX defgrid2
 
%pal
nprocs 4
end
 
%scf
MaxIter 1500
end
 
%maxcore 3000
 

 
* xyz 1 2
C     2.4362412   -0.6939161    0.0000057 
C     2.4362591    0.6938558    0.0000072 
C     1.2323480    1.3966829    0.0000048 
C     0.0000109    0.7126605    0.0000052 
C    -1.2323086    1.3967147    0.0000070 
C    -2.4362377    0.6939186    0.0000024 
C    -2.4362557   -0.6938533    0.0000013 
C    -1.2323446   -1.3966805   -0.0000010 
C    -0.0000074   -0.7126581    0.0000034 
C     1.2323120   -1.3967123    0.0000065 
H     1.2362716   -2.4769487    0.0000136 
H    -1.2363320   -2.4769168   -0.0000106 
H    -3.3703754   -1.2342011    0.0000010 
H    -3.3703436    1.2342903    0.0000014 
H    -1.2362681    2.4769511    0.0000168 
H     1.2363354    2.4769192   -0.0000025 
H     3.3703788    1.2342036    0.0000089 
H     3.3703471   -1.2342878    0.0000055
*
