!TPSSh aug-cc-pVTZ d3 TightSCF SlowConv RIJCOSX defgrid2

%pal
nprocs 15
end

%scf
MaxIter 1500
end

%maxcore 3500

!CPCM
%cpcm smd true
SMDsolvent "WATER"
surfacetype gepol_ses
rsolv 1.40
end

* xyz -1 2
C          -0.01873170749674      0.04093753406553     -3.52858975972066
C          -0.08481953761759     -0.05154774136999      0.71463088236912
C           1.06074238697258      0.22514736046509      1.53440757464188
C           0.96830356526862      0.17882896728935      2.90786805737149
C          -0.26470551878929     -0.14423885396115      3.51526371962268
C          -1.33128436816010     -0.40174847455106      2.63782787275971
N          -1.27485689979469     -0.36556245628455      1.32561828552698
H           2.02142786234163      0.47540072062604      1.07674146761929
H           1.85377788752582      0.39275930361097      3.52001278224486
H          -0.39061214364026     -0.19370360376422      4.60098661165976
H          -2.31725327762224     -0.66048458620174      3.06445837201647
C          -0.03491140317629     -0.01288869194778     -0.72111388392229
C           1.16270029754736      0.31139406157834     -1.44337296366598
C           1.16651016564823      0.33657884142632     -2.82048186671520
C          -1.14232412396102     -0.26425404984996     -2.74235450381628
N          -1.17775822889852     -0.29650902231833     -1.42933091490151
H           2.08677406925420      0.54347018773518     -0.90745689096374
H           2.09048709414386      0.58686162656875     -3.35729468270631
H          -0.06814499795324      0.04684125814958     -4.62156621654479
H          -2.09470004459233     -0.50226242026639     -3.24971132087547
*
