12
Coordinates from ORCA-job cs_rporg_016_red_opt_01 E -231.797098789706
  C          -1.22529066987343      0.66704743781773      0.00002168359140
  C          -0.03496126853419      1.39469871106093      0.00001681573232
  C           1.19034742281071      0.72763815656934      0.00000486668415
  C           1.22529060623977     -0.66703623444881     -0.00000274991533
  C           0.03496151907311     -1.39468785704343      0.00000348152268
  C          -1.19034789437969     -0.72762723255936      0.00001493638754
  H          -2.12407118413544     -1.29834756579676      0.00001940750089
  H           0.06240295882327     -2.48867478107419     -0.00000153324095
  H           2.18642211750805     -1.19027035399337     -0.00001108378126
  H           2.12407102187395      1.29835788033297      0.00000056110263
  H          -0.06240416187133      2.48868564425629      0.00002192326032
  H          -2.18642146753477      1.19028329487864      0.00003019115560
