!B3LYP aug-cc-pVTZ d3 TightSCF SlowConv RIJCOSX defgrid2

%pal
nprocs 15
end

%scf
MaxIter 1500
end

%maxcore 3500

!CPCM
%cpcm smd true
SMDsolvent "WATER"
surfacetype gepol_ses
rsolv 1.40
end

* xyz 0 1
C           0.00636908025291      0.00344693466191     -3.48568134762916
C          -0.07329586297975     -0.04398063872276      0.74138085624868
C           1.10272166896467     -0.10799321931825      1.50278690341546
C           1.00614211679588     -0.13690311443854      2.89048895011345
C          -0.25700371911238     -0.09995487217630      3.47371798070641
C          -1.36597504158140     -0.04157282452465      2.62711576918004
N          -1.28290853833089     -0.01622478520361      1.30443177594435
H           2.07864268736179     -0.16148217056008      1.01390529605249
H           1.90787256726744     -0.19674804501795      3.50759598842189
H          -0.38580781708437     -0.12069403978637      4.55934543988249
H          -2.37943344126066     -0.01230626984174      3.04845755675130
C          -0.01960087155986     -0.01156089996578     -0.74687997443611
C           1.03675391875749      0.62425707841442     -1.41531420429447
C           1.04680281402184      0.63075677304619     -2.80669132538117
C          -1.00064817669856     -0.59696094289784     -2.72713929450383
N          -1.01921053020765     -0.60549492558988     -1.40177260600152
H           1.82553959271218      1.12971852084172     -0.85261087525814
H           1.85413972205566      1.12838604917571     -3.35269269539613
H          -0.03136082161732     -0.01872909991858     -4.57822525423132
H          -1.83911827075703     -1.10093954717764     -3.22567631758471
*
