!TPSSh aug-cc-pVTZ d3 TightSCF SlowConv RIJCOSX defgrid2
 
%pal
nprocs 4
end
 
%scf
MaxIter 1500
end
 
%maxcore 3000
 
!CPCM
%cpcm smd true
SMDsolvent "MeCN"
surfacetype gepol_ses
rsolv 2.19
end 
 
* xyz 1 2
C           0.39027202850425     -0.55394955520482     -0.01147318884514
C           1.46538411398227     -1.41201451226685      0.32843134291825
C           2.76223371510298     -0.95181499222389      0.33062494963678
C           3.04842985596685      0.39380533103560     -0.01062127484712
C           2.02568592855862      1.26931648709972     -0.30266231954854
C           0.67678776447609      0.85315037925119     -0.22862200210739
C          -0.33926818993375      1.86220315940674     -0.30117717382418
C          -1.56489251647505      1.82515242057598      0.30424492715440
C          -2.56690840928871      2.90896571125331      0.23231417274704
H          -3.53355272254525      2.51293544975722     -0.13479632863314
H          -2.77605157275142      3.30247609624592      1.24606137329070
H          -2.25129259404292      3.73887527736490     -0.41869887051134
H          -1.81399596674726      0.96710759352235      0.94261722102013
H          -0.04671759270647      2.79850717185556     -0.79419889631908
H           2.24475638702766      2.31715758324724     -0.52473414148750
H           4.08568441615477      0.73993162783082     -0.02214310519638
H           3.58311040506705     -1.63750220541102      0.55778721997041
H           1.27533483486936     -2.47214630677441      0.50835511028523
C          -0.92089212283098     -1.06759805095657     -0.27601443140599
C          -1.40401796068071     -2.28526831606367      0.13493631580958
C          -2.74957477405163     -2.79884516770918     -0.18467320513625
H          -3.33583401509727     -2.10778381332124     -0.80996844556913
H          -2.66557343194919     -3.77317132724075     -0.70581020687802
H          -3.31016753031929     -3.01606684555296      0.74550545986431
H          -0.77234901522658     -2.92837616395213      0.76142767228746
H          -1.58084503506342     -0.44553323176908     -0.89033947467507
*
