!PBE0 def2-SV(p) Opt Freq d3 TightSCF SlowConv RIJCOSX defgrid2
 
%pal
nprocs 4
end
 
%scf
MaxIter 1500
end
 
%maxcore 3000
 

 
* xyz 1 2
C    -1.4555077   -1.2757385    0.0412031 
C    -0.6298273   -0.0427659    0.2848952 
C    -1.2113353    1.1968280    0.1722064 
C    -2.6144745    1.4284668   -0.2110365 
C    -3.3543525    0.1782693   -0.6703796 
C    -2.9487049   -0.9918022    0.2138828 
H    -3.1620565   -0.7546624    1.2572787 
H    -3.5134364   -1.8854240   -0.0503574 
H    -3.0979933   -0.0415363   -1.7086792 
H    -4.4303209    0.3420452   -0.6223389 
H    -3.1199950    1.8564482    0.6671723 
H    -2.6558865    2.2179882   -0.9688118 
H    -0.6377029    2.0956690    0.3378947 
N     0.6743020   -0.2043608    0.6256882 
C     1.5544625    0.8626495    1.0242354 
H     1.0155789    1.7416653    1.3679402 
C     2.4798063    1.2114749   -0.1721477 
H     3.2150688    1.9599676    0.1214509 
H     1.8680761    1.5866918   -1.0036919 
O     3.1941429    0.0702835   -0.5501426 
C     2.3568880   -0.9846118   -0.9195083 
H     1.7317961   -0.7078544   -1.7790708 
C     1.4321515   -1.3755646    0.2707396 
H     2.0663934   -1.6694754    1.1115090 
H     0.8025566   -2.2104658   -0.0241456 
H     3.0025579   -1.8227656   -1.1798947 
H     2.1882672    0.4968354    1.8376798 
H    -1.2844436   -1.6400110   -0.9764566 
H    -1.1640190   -2.0618172    0.7405938
*
