!PBE0 def2-SV(p) Opt Freq d3 TightSCF SlowConv RIJCOSX defgrid2
 
%pal
nprocs 4
end
 
%scf
MaxIter 1500
end
 
%maxcore 3000
 

 
* xyz 0 1
C    -0.2273190   -1.2010609   -0.0091853 
C     1.1536828   -1.1961793    0.0012411 
C     1.8534806   -0.0000305    0.0056888 
C     1.1537128    1.1961357    0.0012550 
C    -0.2272891    1.2010528   -0.0091764 
C    -0.9409450    0.0000050   -0.0130172 
N    -2.3182284    0.0000217    0.0503277 
H    -2.7786390    0.8481656   -0.2375823 
H    -2.7786555   -0.8481159   -0.2375725 
H    -0.7677096    2.1372532   -0.0130371 
H     1.6899094    2.1347500    0.0025793 
H     2.9334770   -0.0000442    0.0110488 
H     1.6898562   -2.1348070    0.0025871 
H    -0.7677636   -2.1372472   -0.0130333
*
