17
Coordinates from ORCA-job cs_rporg_078_red_opt_04 E -744.586108589148
  C           1.33687346385051     -0.00594223467620     -0.21662824443424
  C           0.74941981187871      1.25669163531764     -0.16438923485625
  C          -0.62247247008920      1.38458846508735     -0.07181865570800
  C          -1.43900268206025      0.25500094948372     -0.03270766778270
  C          -0.85695694360931     -1.00702803359564     -0.08745245461201
  C           0.52374373560774     -1.12954593131682     -0.17705309976158
  H           0.95946623438767     -2.12128145031427     -0.21552301695909
  H          -1.46171488022604     -1.90239509313242     -0.05987967839541
  O          -2.76895114643408      0.47872768544937      0.05785125080484
  C          -3.62082250896471     -0.65000869581265      0.10338191594120
  H          -4.63497656828207     -0.26198185314584      0.17218241960993
  H          -3.52823069558617     -1.25593107342018     -0.80225122544026
  H          -3.41324640727902     -1.27052975399831      0.97975563146246
  H          -1.07800951948673      2.36649310369470     -0.02921347084329
  H           1.36465496534221      2.14786322401531     -0.19676481882489
  S           3.08867028640340     -0.23569070412884     -0.34029503892797
  H           3.42665302454736      1.06353556049311     -0.25378491127273
