!PBE0 freq aug-cc-pVTZ d3 TightSCF SlowConv RIJCOSX defgrid2

%pal
nprocs 12
end

%scf
MaxIter 1500
end

%maxcore 5000

!CPCM
%cpcm smd true
SMDsolvent "MeCN"
surfacetype gepol_ses
rsolv 2.19
end 

* xyz 0 1
C          -0.22983211321702     -1.20194257603856      0.00351352012413
C           1.15543552951121     -1.19585651940848      0.00045961987021
C           1.86305968046567     -0.00003049952250      0.00007644300944
C           1.15546534479285      1.19581293104285      0.00046174705532
C          -0.22980188668804      1.20193455065085      0.00350388702629
C          -0.94559301604926      0.00000462894661      0.00621485448622
N          -2.32621482223375      0.00001895339373      0.06731393986084
H          -2.77700799581236      0.83683156335856     -0.26732606695235
H          -2.77702539154728     -0.83677747687214     -0.26734569558773
H          -0.77055034504545      2.14217483039747      0.00344221671250
H           1.68721875648181      2.14048334391505     -0.00399828902379
H           2.94585190028097     -0.00004371163066     -0.00364313978631
H           1.68716382779197     -2.14054174861579     -0.00400836037890
H          -0.77059986873133     -2.14216926961698      0.00345902358411
*
