!PBE0 def2-SV(p) Opt Freq d3 TightSCF SlowConv RIJCOSX defgrid2
 
%pal
nprocs 4
end
 
%scf
MaxIter 1500
end
 
%maxcore 3000
 

 
* xyz 0 1
C     0.2283743   -1.3186107    0.0002769 
C     1.6040066   -1.2148018    0.0003584 
C     2.1968211    0.0504047    0.0000033 
C     1.4066246    1.2027757   -0.0004616 
C     0.0309360    1.0896774   -0.0005105 
C    -0.5642277   -0.1712015   -0.0001373 
C    -2.0421656   -0.3349252   -0.0001762 
O    -2.6039735   -1.4092677   -0.0005067 
O    -2.6867744    0.8303385    0.0004160 
C    -4.1109533    0.7807621    0.0006188 
H    -4.4695663    0.2581602   -0.8879704 
H    -4.4433124    1.8148367    0.0025828 
H    -4.4692153    0.2548649    0.8874024 
H    -0.5890537    1.9714997   -0.0008496 
H     1.8789109    2.1734161   -0.0008034 
C     3.6065575    0.1654930   -0.0001045 
N     4.7499646    0.2593217    0.0003660 
H     2.2244312   -2.0980244    0.0006519 
H    -0.2561441   -2.2831278    0.0005177
*
