!B3LYP aug-cc-pVTZ d3 TightSCF SlowConv RIJCOSX defgrid2
 
%pal
nprocs 4
end
 
%scf
MaxIter 1500
end
 
%maxcore 3000
 
!CPCM
%cpcm smd true
SMDsolvent "MeCN"
surfacetype gepol_ses
rsolv 2.19
end 
 
* xyz 0 1
C           0.43295274103395     -0.56555208137454     -0.12382569822175
C           1.51815041093286     -1.44256145132370      0.03465132264486
C           2.82291605458460     -0.98131423085206      0.16263470248186
C           3.07724805433695      0.38906543613859      0.10395417081958
C           2.01798434399991      1.27254312720111     -0.06183531891651
C           0.68778075786998      0.82920111453005     -0.15098740877372
C          -0.35699948321221      1.85751329332423     -0.25045884909377
C          -1.60080927987703      1.81370681826415      0.25464129384079
C          -2.59473145726124      2.92199907643296      0.15011601671836
H          -3.51573836514016      2.58612139620194     -0.36308088945608
H          -2.90680231015057      3.27360328807964      1.15160677275170
H          -2.18833105696491      3.78355768338862     -0.40632712366609
H          -1.92003588165608      0.92155321305987      0.80823791464133
H          -0.04094477526312      2.78794694041111     -0.74417993319491
H           2.21326017353196      2.34900579584862     -0.10386391754355
H           4.10071513363350      0.76784189558933      0.18022490580490
H           3.64525794250500     -1.69329903916305      0.28019138928457
H           1.32601592423891     -2.51911318521029      0.01809993008456
C          -0.91691070467914     -1.11038869710857     -0.32534444063154
C          -1.40376577306444     -2.22814293611418      0.23571081912874
C          -2.75893884419196     -2.79406285722768     -0.03123293907509
H          -3.32366890460505     -2.17343167413791     -0.74746352614549
H          -2.69094682094056     -3.81739069188698     -0.44702594213530
H          -3.35245768734527     -2.87433845188828      0.89900228994579
H          -0.77994682614443     -2.77248476472153      0.95866929401903
H          -1.56550936617145     -0.54211921746145     -1.00577693531227
*
