!r2SCANh aug-cc-pVTZ d3 TightSCF SlowConv RIJCOSX defgrid2
 
%pal
nprocs 4
end
 
%scf
MaxIter 1500
end
 
%maxcore 3000
 
!CPCM
%cpcm smd true
SMDsolvent "MeCN"
surfacetype gepol_ses
rsolv 2.19
end 
 
* xyz 0 1
C          -1.38053685940747     -1.21804540995532     -0.00011060626091
C           0.00880673788646     -1.21761505772678     -0.00009043075416
C           0.68407451418940     -0.00000826905018      0.00002079320919
C           0.00881895322689      1.21760888927779      0.00010917128456
C          -1.38052397185078      1.21805873995267      0.00009090964868
C          -2.05580079114724      0.00001020724702     -0.00001816987555
F          -3.38048726341071      0.00001804396249     -0.00003514545168
H          -1.95216629027619      2.14893818448022      0.00016183253789
H           0.58216467537740      2.14580924232628      0.00018829183514
N           2.15012174350491     -0.00002110651836      0.00004214105770
O           2.70660121926706     -1.07534719974692     -0.00006677256489
O           2.70659645313172      1.07532442371150     -0.00002414626605
H           0.58214126111558     -2.14581854067801     -0.00015767613729
H          -1.95219098160703     -2.14891564728239     -0.00019689226262
*
