!r2SCAN aug-cc-pVTZ d3 TightSCF SlowConv RIJCOSX defgrid2
 
%pal
nprocs 4
end
 
%scf
MaxIter 1500
end
 
%maxcore 3000
 
!CPCM
%cpcm smd true
SMDsolvent "MeCN"
surfacetype gepol_ses
rsolv 2.19
end 
 
* xyz 0 1
C           1.90204149518375      0.85175069124874      0.29746003083239
C           1.67806327505735     -0.18007693267996     -0.61991983305632
C           2.67766384874709     -1.10217971745057     -0.88998783092066
C           3.91971539346518     -1.02243656774625     -0.24487905563433
C           4.14595550737713      0.01017707113018      0.67131493503817
C           3.14165845010563      0.94339092100850      0.92991610789907
H           3.33764385584375      1.75629242798997      1.63640783818954
H           5.10426353496277      0.11113790522407      1.18399893458188
O           4.82437427008133     -1.96808561528419     -0.57026671296603
C           6.08212467193582     -1.93604150499656      0.03937910976531
H           6.00811550930605     -2.04413775152094      1.13899316949653
H           6.62762267171733     -1.00092757885139     -0.19326138302289
H           6.64748938028465     -2.78866496010233     -0.36556594059567
H           2.51725803302919     -1.91024479956558     -1.60812631160203
H           0.71655401167501     -0.25011710230323     -1.13625291311173
S           0.67299496253335      2.05264998729490      0.77228191902236
S          -0.67289432342165      2.05290943519487     -0.77138488347598
C          -1.90204031262548      0.85198738280173     -0.29688616793200
C          -1.67813191920431     -0.18013245127198      0.62018473712761
C          -2.67779582841691     -1.10225027982985      0.88996766430274
C          -3.91983449465123     -1.02224023963496      0.24486384046698
C          -4.14600620480715      0.01066778938885     -0.67101420394572
C          -3.14164941952594      0.94389970179356     -0.92931828009062
H          -3.33757462896756      1.75703373795364     -1.63555895862120
H          -5.10430366539882      0.11184879268910     -1.18367603270811
O          -4.82454925075659     -1.96793934833253      0.56994794546651
C          -6.08228086565604     -1.93565869569194     -0.03972588010912
H          -6.00824247611482     -2.04342740943553     -1.13936995580242
H          -6.64769241955313     -2.78837951769747      0.36494669506615
H          -6.62774680598541     -1.00059156129990      0.19317765994923
H          -2.51744986321001     -1.91054439699301      1.60786208700731
H          -0.71663329301036     -0.25039391302994      1.13650706938306
*
