!TPSSh freq aug-cc-pVTZ d3 TightSCF SlowConv RIJCOSX defgrid2

%pal
nprocs 12
end

%scf
MaxIter 1500
end

%maxcore 5000

!CPCM
%cpcm smd true
SMDsolvent "MeCN"
surfacetype gepol_ses
rsolv 2.19
end 

* xyz 0 1
C          -0.32929488413657      0.79958569403428      0.00044273535199
C          -1.62064273901710      0.26512523742046     -0.00020576169036
C          -1.80432551351291     -1.11702937985967      0.00040659700901
C          -0.67721002406201     -1.94268452957353      0.00208797584013
C           0.60475083946867     -1.41996105828678      0.00282182676021
C           0.79623097182594     -0.02620793764457      0.00167680462721
C           2.12003001414923      0.60623088110746      0.00195889667842
C           3.30641276426241     -0.01400237289311     -0.00198378489099
C           4.62380142061727      0.68911900588518     -0.00119207997422
H           5.21449119138271      0.41087526655385     -0.88079707373311
H           5.21822793733002      0.40102406633612      0.87271923920832
H           4.50188721530458      1.77395550003908      0.00505557433799
H           3.34867776156783     -1.10033674308372     -0.00638425570909
H           2.10706040858269      1.69424506736667      0.00536777232973
H           1.45418527737287     -2.09083281621199      0.00484806129512
H          -0.81713692626644     -3.01746919504622      0.00321379625985
H          -2.79302535743489     -1.55356575501186     -0.00063295864249
O          -2.63724047795254      1.17280763041773     -0.00143754498251
C          -3.97281153020014      0.65970820471451     -0.00151714938107
H          -4.62235565773561      1.53218843498021     -0.00192511531647
H          -4.16125459990047      0.06074074115443      0.89321910754182
H          -4.16079480798000      0.06040695045440     -0.89606844083238
H          -0.21249908366553      1.87744010714706     -0.00041962208710
*
