!PBE0 def2-SV(p) Opt Freq d3 TightSCF SlowConv RIJCOSX defgrid2
 
%pal
nprocs 4
end
 
%scf
MaxIter 1500
end
 
%maxcore 3000
 

 
* xyz 0 1
C    -1.8922560   -0.6916733    0.0000119 
C    -0.6889112   -1.3758009    0.0000104 
C     0.5236769   -0.6994828   -0.0000071 
C     1.8137133   -1.4625260   -0.0000238 
H     2.4062270   -1.2124713    0.8794659 
H     1.6270522   -2.5334681    0.0000131 
H     2.4061695   -1.2125095   -0.8795646 
C     0.5236774    0.6994728   -0.0000096 
C     1.8137177    1.4625079   -0.0000292 
H     2.4061234    1.2125792   -0.8796356 
H     1.6270644    2.5334512    0.0001319 
H     2.4062751    1.2123631    0.8794031 
C    -0.6889108    1.3757895   -0.0000061 
C    -1.8922553    0.6916632    0.0000005 
H    -2.8249296    1.2373597   -0.0000054 
H    -0.6907238    2.4572013   -0.0000191 
H    -0.6907286   -2.4572141    0.0000267 
H    -2.8249292   -1.2373687    0.0000177
*
