23
Coordinates from ORCA-job cs_rporg_061_ox_opt_06 E -538.207912100589
  C           1.35794743520226     -0.82343888149801      0.62503760179032
  C           2.62204331912480     -1.37307199623954      0.64438113329288
  C           3.70270383764418     -0.68068705785656      0.08692020761960
  C           3.52324007079477      0.59024413297470     -0.47563343780460
  C           2.27340518345818      1.16739244083210     -0.49151833267991
  C           1.19323039834760      0.43962597955069      0.03135934728270
  O           0.00003211824627      1.08120388224264     -0.00076687011237
  C          -1.19323879973706      0.43958560398753     -0.03220584762976
  C          -2.27316379728189      1.16730127356112      0.49116060629424
  C          -3.52298315014212      0.59004715952487      0.47604715363499
  C          -3.70269109288860     -0.68092930740974     -0.08628673734290
  C          -2.62227913460788     -1.37327206027011     -0.64424697036890
  C          -1.35819304380854     -0.82351032694728     -0.62564656217702
  H          -0.52538189795899     -1.31860043211393     -1.10576384382373
  H          -2.78080278528441     -2.33252724969744     -1.11891466447988
  H          -4.69109841631453     -1.12097691071492     -0.11285256134953
  H          -4.36662162926436      1.12022838265468      0.89754597610327
  H          -2.09413528429913      2.14499850675855      0.91871836965091
  H           2.09450056697748      2.14501886710762     -0.91928894401230
  H           4.36709812494520      1.12043478066670     -0.89667689047034
  H           4.69112624309043     -1.12066773457928      0.11405827295894
  H           2.78043761217983     -2.33224411125622      1.11926027373183
  H           0.52485492157650     -1.31839924127816      1.10477831989159
