!COSMORS(Acetonitrile)
 
%pal
nprocs 20
end
 

 
%maxcore 3000
 

 
* xyz 1 2
C           2.57979434838040     -0.76512868779033      0.55002877373972
N           1.26500932172402     -1.28908125363632      0.40636602507995
C           0.28298609020251     -0.62522563405020     -0.18777766408559
N           0.31055121241113      0.70973986743819     -0.21944975029898
C          -0.90428464054798      1.50462363713153     -0.44239867601191
C          -2.03947642318260      1.21762022221086      0.53873406977095
C          -2.86207876844258     -0.03194236210921      0.24124470818338
C          -2.09231646642057     -1.34422284732392      0.30081277590326
C          -0.89800263393673     -1.40686847310809     -0.66426598959003
H          -1.19352492058052     -1.04767852417754     -1.66637286512155
H          -0.55567841992770     -2.44756644418100     -0.76734795095617
H          -1.73641294806257     -1.54754065839741      1.32696955727058
H          -2.77055233723731     -2.17340424344339      0.04048078954003
H          -3.70277523981103     -0.07756392292857      0.95370276319110
H          -3.31960998926737      0.07384959946049     -0.76068861915501
H          -1.62677902226913      1.18604117824051      1.56422468629433
H          -2.70692750664589      2.09548743827220      0.50583543871622
H          -1.23343592081792      1.34322694259980     -1.48570258502121
H          -0.59336721164102      2.55553341754968     -0.36087201839100
C           1.54294297274965      1.42951819328861      0.10261663203758
C           2.75435971769682      0.56347028127833     -0.16667570355996
H           3.66676062867917      1.07905197663072      0.17154765035364
H           2.85358487208654      0.39538376428371     -1.25327533388472
H           1.55803196576022      2.33719006220635     -0.52185668580850
H           1.49212710050547      1.76061659958086      1.15811318961915
H           2.78164201792086     -0.70742891166271      1.63950028346109
H           3.28595160067412     -1.53996281736316      0.18807279872366
*
