!B3LYP aug-cc-pVTZ d3 TightSCF SlowConv RIJCOSX defgrid2
 
%pal
nprocs 4
end
 
%scf
MaxIter 1500
end
 
%maxcore 3000
 
!CPCM
%cpcm smd true
SMDsolvent "MeCN"
surfacetype gepol_ses
rsolv 2.19
end 
 
* xyz 0 1
C           2.43031351008729     -0.70749139029856      0.00001403239272
C           2.43032444825569      0.70745716976960      0.00001780057511
C           1.24225650957686      1.40066986227340      0.00001298600543
C           0.00000747832604      0.71479447718917      0.00000542687051
C          -1.24223111805275      1.40068893561610      0.00000324875952
C          -2.43030983452578      0.70749421287076     -0.00000358520312
C          -2.43032103578901     -0.70745426001962     -0.00000960120256
C          -1.24225352108494     -1.40066808823521     -0.00000641420954
C          -0.00000405709778     -0.71479302978643      0.00000150500237
C           1.24223524877496     -1.40068686163162      0.00000460886950
H           1.23824372924118     -2.49527550154318      0.00000243863973
H          -1.23827753101703     -2.49525698617010     -0.00000852848414
H          -3.38175156931066     -1.24754932619836     -0.00001429910497
H          -3.38173131512848      1.24760412689582     -0.00000496639229
H          -1.23823830440863      2.49527781567030      0.00000665226192
H           1.23827983240145      2.49525951167016      0.00001366019695
H           3.38175416757919      1.24755290950869      0.00002330946105
H           3.38173466217241     -1.24760147758094      0.00001812556182
*
