!TPSSh freq aug-cc-pVTZ d3 TightSCF SlowConv RIJCOSX defgrid2

%pal
nprocs 12
end

%scf
MaxIter 1500
end

%maxcore 5000

!CPCM
%cpcm smd true
SMDsolvent "MeCN"
surfacetype gepol_ses
rsolv 2.19
end 

* xyz 0 1
  C           1.34992626469544     -0.65002583027219      0.79668305290934
  C           2.59749876999660     -1.26343984332818      0.84486241858722
  C           3.68012900035831     -0.72612146823969      0.15199852012524
  C           3.50884680399537      0.43739596370016     -0.59389746349084
  C           2.26487686786414      1.05751467379513     -0.65725538734938
  C           1.19292983173831      0.50692527879813      0.03731725148647
  O          -0.00001292030731      1.20455819900066      0.00027314959528
  C          -1.19292923191968      0.50697976392817     -0.03709481286097
  C          -2.26509278406708      1.05761928735883      0.65712561957264
  C          -3.50903956314490      0.43748178174605      0.59346710052820
  C          -3.68011608780157     -0.72611548855165     -0.15234770232812
  C          -2.59727836154212     -1.26354109950803     -0.84479848514082
  C          -1.34974102222085     -0.65008849572201     -0.79632740072994
  H          -0.51068192662545     -1.06357573290731     -1.34061196112105
  H          -2.72155271727473     -2.16391204296923     -1.43432226866888
  H          -4.64826441320995     -1.20911483619447     -0.19588985168233
  H          -4.34410065573686      0.86525951140090      1.13491001581860
  H          -2.11719172072335      1.96058043043469      1.23597212612429
  H           2.11681026911961      1.96043498965152     -1.23612866046888
  H           4.34376646348433      0.86514549779363     -1.13558441804389
  H           4.64829294991614     -1.20911204700632      0.19532900209761
  H           2.72197874382188     -2.16370687661789      1.43450877625853
  H           0.51099373958376     -1.06338581629085      1.34127107878165
*
