!B3LYP freq aug-cc-pVTZ d3 TightSCF SlowConv RIJCOSX defgrid2

%pal
nprocs 12

end

%scf
MaxIter 1500
end

%maxcore 5000

!CPCM
%cpcm smd true
SMDsolvent "MeCN"
surfacetype gepol_ses
rsolv 2.19
end 

* xyz -1 2
C           0.68328784252702     -1.22871239073802     -0.00202301979528
C          -0.68930655390779     -1.22438381933278     -0.00108966590940
C          -1.39082556437395      0.00344246711647      0.00042241561667
C          -0.66185742064073      1.21260769076775     -0.00016986181317
C           0.71371714594524      1.18642803836348     -0.00123631524335
C           1.42950310782110     -0.02947461622283     -0.00185512330177
C           2.89189435322828     -0.08237892377962     -0.00237201503270
O           3.50061740179733     -1.15708850910179     -0.00497714986034
C           3.66730235856799      1.21616958053221     -0.00261269858195
H           3.42950581459245      1.81667636529870      0.87752487107855
H           4.73218509897246      0.99613345792055     -0.00585911759448
H           3.42482025047176      1.81938223738908     -0.87951278203028
H           1.24651939828747      2.12637299395440     -0.00185936038465
H          -1.19914339002208      2.14728197631013      0.00042881610098
N          -2.77979190577170      0.01945920497461      0.00250312678167
O          -3.39487629668343      1.14030369216863      0.00284395707065
O          -3.42124570882378     -1.08653036403937      0.00186085662629
H          -1.24994180556142     -2.14547486748559     -0.00125009145097
H           1.21860137357379     -2.16766401409602     -0.00285234227647
*
