!PBE0 aug-cc-pVTZ d3 TightSCF SlowConv RIJCOSX defgrid2
 
%pal
nprocs 4
end
 
%scf
MaxIter 1500
end
 
%maxcore 3000
 
!CPCM
%cpcm smd true
SMDsolvent "MeCN"
surfacetype gepol_ses
rsolv 2.19
end 
 
* xyz 0 1
C          -1.46623314437860      0.00011003866901      0.22138384864377
C          -0.72146821550608     -1.25556136021306     -0.22481675803302
C           0.73262554024155     -1.20678755712777      0.22695422389648
N           1.36188913054653     -0.00003006922571     -0.26913603967446
H           2.35649748423742      0.00003991081311     -0.05534562705397
C           0.73253990701766      1.20675926009467      0.22704999760922
C          -0.72144308108941      1.25558522950449     -0.22511308939031
H          -1.21016137962431      2.16287914838208      0.17240179576001
H          -0.74244280115887      1.32521043142589     -1.32823766113094
H           1.28241123896761      2.08000889090111     -0.16483545442717
H           0.76101367989671      1.27620173910910      1.34294202221842
H           1.28219641826463     -2.08008378359356     -0.16534993713385
H           0.76183907670503     -1.27697357186768      1.34279799676324
H          -1.21020710908673     -2.16266625677100      0.17304098184531
H          -0.74264320710994     -1.32505523098441     -1.32794132635220
H          -2.49942641463124      0.00003764837706     -0.16886144147242
H          -1.54597222329197      0.00034473250668      1.32642866793188
*
