!PBE0 def2-SV(p) Opt Freq d3 TightSCF SlowConv RIJCOSX defgrid2
 
%pal
nprocs 4
end
 
%scf
MaxIter 1500
end
 
%maxcore 3000
 

 
* xyz -1 2
C     1.1214647    1.2393666    0.0035876 
C    -0.2388508    1.2464035    0.0101690 
C    -0.9541358    0.0269761    0.0271803 
C    -0.2302834   -1.1864416    0.0209791 
C     1.1319332   -1.1881613    0.0124497 
C     1.8786015    0.0283230    0.0041607 
C     3.2987113    0.0830798   -0.0054767 
O     3.9515019    1.1664320   -0.0092841 
C     4.0679353   -1.2360671   -0.0124829 
H     3.8310423   -1.8208646    0.8748999 
H     3.8151333   -1.8199558   -0.8961009 
H     5.1342360   -1.0207317   -0.0219437 
H     1.6529713   -2.1329757    0.0112761 
H    -0.7844382   -2.1164230    0.0275504 
C    -2.4137681   -0.0047121    0.0073643 
F    -2.9711601   -0.4166687   -1.1969489 
F    -2.9774037   -0.8805778    0.8949754 
F    -3.0185274    1.1762974    0.2504342 
H    -0.7892266    2.1776932    0.0078727 
H     1.6767447    2.1672125   -0.0047659
*
