15
Coordinates from ORCA-job cs_rporg_100_ox_opt_07 E -383.377387686582
  C           0.86875046985433     -1.42274282821881     -0.00075042261325
  C           2.09458720891430     -0.72261662556549      0.00061144052522
  C           2.16611887878942      0.67902134712328     -0.00028351028172
  C           1.02627189216797      1.44555176889771     -0.00113391981612
  C          -0.22076811966180      0.77074923844939     -0.00142002355015
  C          -0.23984070508269     -0.64358733179872     -0.00225639976753
  O          -1.54896509392116     -1.08546780108323     -0.00248422135808
  C          -2.30551172260887      0.00132901971932     -0.00010457519747
  C          -1.54833834217055      1.17894518142721      0.00032995116840
  H          -1.95072383567244      2.17719598963001      0.00296323684549
  H          -3.37244679482399     -0.14989197711142      0.00225541592403
  H           1.06408124061735      2.52463209929186     -0.00161123017722
  H           3.13610111621361      1.15266140919953      0.00048057717069
  H           3.01050581300877     -1.29567141254507      0.00324733749861
  H           0.82923949437577     -2.50114747741556      0.00022694362912
