17
Coordinates from ORCA-job cs_rporg_143_ox_opt_06 E -484.077096295452
  C          -0.02681716311645      1.19523619317427     -0.00006953652293
  C           1.36075250358599      1.22483403407787      0.00008731347257
  C           2.03692335824194      0.01840496381050      0.00007161614857
  C           1.39546539569675     -1.20978910139722      0.00036942353294
  C           0.01136869657501     -1.21852592127554     -0.00005877886901
  C          -0.71651458908022     -0.02229395468779     -0.00038883146827
  C          -2.20350096161076     -0.08730764444235     -0.00099773994344
  O          -2.77860960839862     -1.16788359841594     -0.00203918545655
  C          -2.97673187148724      1.20020129935237     -0.00017295633234
  H          -2.72604927105717      1.80064936195600      0.87761256828478
  H          -2.72805501827851      1.80076003460005     -0.87855783795185
  H          -4.04230394072297      0.98273629689606      0.00105976423295
  H          -0.52707712621995     -2.15771996623890      0.00008853059644
  H           1.97364327929206     -2.12489745146014      0.00075769362350
  F           3.38791502258915      0.03742049515737     -0.00016446934350
  H           1.91031225395073      2.15718997628209      0.00009229577618
  H          -0.56635285995971      2.13307708261130      0.00058373021994
