!TPSSh freq aug-cc-pVTZ d3 TightSCF SlowConv RIJCOSX defgrid2

%pal
nprocs 12
end

%scf
MaxIter 1500
end

%maxcore 5000

!CPCM
%cpcm smd true
SMDsolvent "MeCN"
surfacetype gepol_ses
rsolv 2.19
end 

* xyz 0 1
C           2.40151675442959     -0.84798585379100      0.65753895397887
C           1.27266424852961     -0.39481725673195     -0.03583141869382
C           1.38011588468201      0.78238816818387     -0.78741687955246
C           2.58394783406903      1.47326480307467     -0.85979269046365
C           3.70131083914128      1.00832651393014     -0.17045773225976
C           3.60452235841405     -0.15428446437148      0.59022014490624
H           4.46427632456242     -0.51593666886599      1.14150423927602
H           4.63713557146549      1.55173882888937     -0.21931795906959
H           2.64948680121802      2.37641308570170     -1.45463453632497
H           0.51737616648935      1.15050278742381     -1.32885639310577
C          -0.00001304597097     -1.15621871764186      0.00018757468695
C           0.00005304400368     -2.49840698904332      0.00014554926908
H          -0.92182010055571     -3.06314745934077      0.06701575757582
H           0.92198753283710     -3.06304217067142     -0.06678377972214
C          -1.27274475342979     -0.39491342174637      0.03611225862761
C          -2.40142785222447     -0.84793215190418     -0.65761946587989
C          -3.60437014035580     -0.15407643932380     -0.59067195932158
C          -3.70128640460221      1.00849870338361      0.17003867439614
C          -2.58413111853620      1.47320474173454      0.85985101573710
C          -1.38039040462091      0.78217919703926      0.78779983749973
H          -0.51785455417022      1.15005732928396      1.32970971316195
H          -2.64977022861671      2.37627771772743      1.45478992245956
H          -4.63705678031490      1.55203765026455      0.21859473287916
H          -4.46396463126485     -0.51556504621463     -1.14230583063618
H          -2.32700387529532     -1.74064187324053     -1.26685971631834
H           2.32721043011644     -1.74071501374962      1.26676348689389
*
