!PBE0 freq def2-SV(p) d3 TightSCF SlowConv RIJCOSX defgrid2

%pal
nprocs 12
end

%scf
MaxIter 1500
end

%maxcore 5000

!CPCM
%cpcm smd true
SMDsolvent "MeCN"
surfacetype gepol_ses
rsolv 2.19
end 

* xyz 0 1
C           0.69277091304089     -1.21996188500112     -0.00239150202794
C          -0.69479958177935     -1.22216816179253     -0.00151824709753
C          -1.35841188938533      0.00281384424836     -0.00034515605819
C          -0.68022118044650      1.21723004712011      0.00026915650133
C           0.71069531760091      1.20221124089897     -0.00057483701577
C           1.40618483782808     -0.01365662626569     -0.00196998994594
C           2.90789967215350     -0.08272477208951     -0.00279212501687
O           3.46071232895778     -1.16307205877204     -0.00256623066793
C           3.68208579167981      1.20351284292946     -0.00349513411197
H           3.43762086546760      1.80914797566131      0.88689539634925
H           4.75877001925416      0.97735222951353     -0.00570596956664
H           3.43427387001526      1.81089863385808     -0.89168166482399
H           1.24672178376856      2.15356784306333      0.00000401754384
H          -1.23703763839592      2.15501906811350      0.00201448305598
N          -2.82445700212803      0.01257955936525      0.00150986003596
O          -3.38221509280324      1.08876723358627      0.00266285913938
O          -3.39542827035796     -1.05669402829273      0.00233892411264
H          -1.26414223180366     -2.15257120282496     -0.00124715997189
H           1.24991938733345     -2.15963828331960     -0.00344138043376
*
