!PBE0 def2-SV(p) Opt Freq d3 TightSCF SlowConv RIJCOSX defgrid2
 
%pal
nprocs 4
end
 
%scf
MaxIter 1500
end
 
%maxcore 3000
 

 
* xyz -1 2
C    -0.4710916    1.1996739    0.0001109 
C     0.8974791    1.2130267    0.0001267 
C     1.6050832    0.0102480    0.0000175 
C     0.9305119   -1.2151580   -0.0000684 
C    -0.4346700   -1.2253316   -0.0000562 
C    -1.2081106   -0.0239414    0.0000032 
C    -2.6237463   -0.0916642   -0.0000662 
O    -3.2746019   -1.1873930   -0.0000276 
C    -3.4077582    1.2210095   -0.0002486 
H    -3.1712209    1.8101937    0.8854817 
H    -3.1709074    1.8101071   -0.8859534 
H    -4.4722015    0.9947012   -0.0004234 
H    -0.9756606   -2.1623837   -0.0001248 
H     1.4946893   -2.1385419   -0.0001501 
Cl    3.3478548    0.0342340   -0.0000062 
H     1.4402881    2.1491817    0.0002225 
H    -0.9988580    2.1414506    0.0002072
*
