!PBE0 def2-SV(p) Opt Freq d3 TightSCF SlowConv RIJCOSX defgrid2
 
%pal
nprocs 8
end
 
%scf
MaxIter 1500
end
 
%maxcore 3000
 

 
* xyz -1 2
C    -1.1660680   -1.2500275   -0.0004320 
C    -2.5043877   -0.9493515   -0.0005147 
C    -2.9461626    0.3827498   -0.0000792 
C    -1.9939517    1.4114445    0.0004819 
C    -0.6469088    1.1390307    0.0005709 
C    -0.1714777   -0.2108137    0.0000973 
C     1.1642084   -0.6103916    0.0000576 
O     1.6781570   -1.7313830   -0.0002973 
Cl    2.3982842    0.8066670    0.0006460 
H     0.0674634    1.9542905    0.0010090 
H    -2.3294960    2.4437588    0.0008428 
H    -4.0041174    0.6116935   -0.0001509 
H    -3.2354671   -1.7516159   -0.0009226 
H    -0.8307533   -2.2830416   -0.0007633 
*
