!PBE0 def2-SV(p) Opt Freq d3 TightSCF SlowConv RIJCOSX defgrid2
 
%pal
nprocs 4
end
 
%scf
MaxIter 1500
end
 
%maxcore 3000
 

 
* xyz 1 2
C    -1.9598752   -1.0958377   -0.3876622 
C    -1.2466290    0.2788443   -0.2013813 
N     0.0160231    0.0609648    0.3902936 
H     0.0608423    0.0460395    1.4069850 
C     1.2215921   -0.1317520   -0.3172571 
C     1.8991807    1.2549730   -0.5469378 
H     2.1565514    1.7035146    0.4085905 
H     1.2325678    1.9171429   -1.0925711 
H     2.8042420    1.0988236   -1.1261559 
C     2.1729749   -1.0469771    0.4436056 
H     1.7189896   -2.0248087    0.5918228 
H     3.0908832   -1.1719513   -0.1237902 
H     2.4325394   -0.6322405    1.4157353 
H     0.9884824   -0.5339757   -1.3123313 
C    -2.1127551    1.1911007    0.6593103 
H    -1.6219493    2.1511612    0.8056773 
H    -2.3121507    0.7490593    1.6335208 
H    -3.0661748    1.3591338    0.1658685 
H    -1.1007888    0.6958709   -1.2067572 
H    -1.3592933   -1.7530460   -1.0102187 
H    -2.1254639   -1.5617639    0.5798158 
H    -2.9169019   -0.9189535   -0.8696698
*
