!PBE0 def2-SV(p) Opt Freq d3 TightSCF SlowConv RIJCOSX defgrid2

%pal
nprocs 15
end

%scf
MaxIter 1500
end

%maxcore 3500

 

* xyz 0 2
6       -0.080290000     -0.030919000     -1.061927000
6       -0.032526000     -0.982519000     -0.118192000
6       -0.122898000     -0.420116000      1.266271000
7       -0.235687000      1.018304000      0.961098000
6       -0.207924000      1.355178000     -0.476887000
1        0.067026000     -2.051769000     -0.317209000
8       -0.333015000      1.887825000      1.856050000
6       -0.013597000     -0.254038000     -2.514182000
8        0.057196000     -1.560355000     -2.817746000
6       -1.510709000      2.055326000     -0.862954000
1       -1.493887000      2.336765000     -1.927729000
1       -2.377397000      1.397756000     -0.679166000
1       -1.623784000      2.961497000     -0.245067000
6        0.999803000      2.244868000     -0.770841000
1        0.927442000      3.158286000     -0.157171000
1        1.938723000      1.725802000     -0.514059000
1        1.023771000      2.518081000     -1.837383000
6        1.138876000     -0.675535000      2.093292000
1        1.225866000     -1.742215000      2.360700000
1        2.040985000     -0.375004000      1.534893000
1        1.084808000     -0.077503000      3.018383000
6       -1.372355000     -0.886005000      2.016764000
1       -2.275957000     -0.734333000      1.403036000
1       -1.297957000     -1.953943000      2.283069000
1       -1.473658000     -0.291485000      2.939951000
7       -0.023270609      0.823799828     -3.513717912
1       -0.398586844      1.703566444     -3.186183886
1       -0.410447058      0.567017770     -4.411653035
*
