!B3LYP freq aug-cc-pVTZ d3 TightSCF SlowConv RIJCOSX defgrid2

%pal
nprocs 12

end

%scf
MaxIter 1500
end

%maxcore 5000

!CPCM
%cpcm smd true
SMDsolvent "MeCN"
surfacetype gepol_ses
rsolv 2.19
end 

* xyz 0 1
  C           0.69041529299401     -1.22381364736019     -0.00204513004828
  C          -0.69166280644881     -1.21993998657167     -0.00208729689060
  C          -1.34926601215825      0.00364993899665     -0.00024996159156
  C          -0.66830928738403      1.21131272043568      0.00171888002757
  C           0.71705377170033      1.18955547055464      0.00130608489995
  C           1.40698569560389     -0.02424584685745     -0.00045378467654
  C           2.90693784774073     -0.07995675954243     -0.00094109720476
  O           3.47569323647892     -1.15793413861091      0.00174165564003
  C           3.67327216713827      1.21129516002014     -0.00508581422538
  H           3.42237083409204      1.80831271574433      0.87365277098708
  H           4.73921750638238      1.00050827396738     -0.00799040728148
  H           3.41695275883805      1.80601204465083     -0.88368120508424
  H           1.25107381437750      2.12692201464351      0.00181163594992
  H          -1.20910136391767      2.14366601549033      0.00379622403654
  N          -2.81784929160355      0.01867489531912      0.00064643990860
  O          -3.38417700452612      1.10479729803861      0.00418444493546
  O          -3.40528615758406     -1.05618957383709     -0.00171339649307
  H          -1.25224712247021     -2.14065530313609     -0.00309580454167
  H           1.22886802074658     -2.15935779194539     -0.00354893834757
*
