!PBE0 def2-SV(p) Opt Freq d3 TightSCF SlowConv RIJCOSX defgrid2
 
%pal
nprocs 4
end
 
%scf
MaxIter 1500
end
 
%maxcore 3000
 

 
* xyz 0 1
C     0.4050775    1.0913819    0.0000000 
C     1.2145913   -0.0201964    0.0000153 
C     0.3236793   -1.1045329   -0.0000030 
N    -0.9286336   -0.6896451   -0.0000091 
N    -0.8650375    0.6394316   -0.0000113 
H    -1.7153781    1.1810842   -0.0000238 
H     0.5484545   -2.1530181    0.0000032 
H     2.2844692   -0.0547856    0.0000213 
H     0.6364986    2.1368529    0.0000024
*
