14
Coordinates from ORCA-job cs_rporg_169_ox_opt_05 E -805.122374108587
  C          -1.15706441901489     -1.24224498192326     -0.00071519030120
  C          -2.50916461155393     -0.94819439264637     -0.00043665602859
  C          -2.93286628149901      0.37855570039730      0.00021764077708
  C          -2.00131730821105      1.41120337995204      0.00013123190714
  C          -0.64458329170556      1.12539158959221     -0.00031562888609
  C          -0.21509330526861     -0.20360898260321     -0.00048236321981
  C           1.19828287394084     -0.60238875771485      0.00038202369281
  O           1.63971604284017     -1.70509227583071     -0.00021957678013
  Cl          2.40274294796315      0.79153287556473      0.00246950156572
  H           0.07331722173478      1.92971155384724     -0.00066463630980
  H          -2.33100190605707      2.44043744992021      0.00119583861298
  H          -3.99005149394586      0.60584012876806      0.00097624902762
  H          -3.23379811601314     -1.75011258873000     -0.00070324354475
  H          -0.81979555320980     -2.26809669859336     -0.00134049051298
