!r2SCANh aug-cc-pVTZ d3 TightSCF SlowConv RIJCOSX defgrid2
 
%pal
nprocs 4
end
 
%scf
MaxIter 1500
end
 
%maxcore 3000
 
!CPCM
%cpcm smd true
SMDsolvent "MeCN"
surfacetype gepol_ses
rsolv 2.19
end 
 
* xyz 0 1
C          -0.01157783641881      1.20352898199244      0.00001890353025
C           1.37990540430455      1.22191450811359      0.00011854591947
C           2.06592899516975      0.01252414866139      0.00007181753194
C           1.39794249050432     -1.20933071970230     -0.00006681343243
C           0.01016197626576     -1.21076373795935     -0.00015906863819
C          -0.71228022521915     -0.00932565619212     -0.00012281102354
C          -2.20544538942687     -0.09111368239076     -0.00023883939795
O          -2.76237956084169     -1.16697560386648     -0.00031741607190
C          -2.99637020201978      1.19627311334720     -0.00027997588088
H          -2.76201741553525      1.80607989056811      0.88981335524989
H          -2.76168147330890      1.80627685436038     -0.89014621124470
H          -4.06823478710533      0.95066483560844     -0.00049545748797
H          -0.55378818786793     -2.14712022161097     -0.00026564570615
H           1.97664868381534     -2.13630478054762     -0.00010007290271
F           3.39392859180167      0.02324511926514      0.00015796253828
H           1.94353444532030      2.15785345098842      0.00023004641097
H          -0.54990740943796      2.15466559936447      0.00005528060562
*
