!PBE0 def2-SV(p) Opt Freq d3 TightSCF SlowConv RIJCOSX defgrid2
 
%pal
nprocs 8
end
 
%scf
MaxIter 1500
end
 
%maxcore 3000
 

 
* xyz 1 2
6       -0.496338000      1.230443800      0.060038600
6       -1.874018000      1.218153600      0.074799400
6       -2.576433000      0.000132400     -0.018876400
6       -1.875241400     -1.217972800     -0.120192400
6       -0.497479200     -1.230430200     -0.120471600
6        0.232730600     -0.000042800     -0.034205000
7        1.585330800     -0.000077400     -0.041622200
6        2.332825400      1.249219600     -0.245308000
1        3.405043600      1.028799800     -0.757000600
1        1.689558000      1.941455200     -0.962734000
1        2.499234600      1.741989000      0.832489800
6        2.335035000     -1.249332200      0.154216600
1        3.412391800     -1.028857600      0.653916800
1        1.699932600     -1.941119800      0.878597400
1        2.489739400     -1.742496400     -0.924752800
1        0.023904400     -2.187463800     -0.238443200
1       -2.423655400     -2.163761200     -0.209900200
1       -3.669890000      0.000200200     -0.012888200
1       -2.421307800      2.163999200      0.170589000
1        0.026463200      2.187397800      0.172386400
*
