!PBE0 def2-SV(p) Opt Freq d3 TightSCF SlowConv RIJCOSX defgrid2
 
%pal
nprocs 4
end
 
%scf
MaxIter 1500
end
 
%maxcore 3000
 

 
* xyz 1 2
C     0.4284117    1.0877376   -0.0000144 
C    -0.9169155    1.3074825   -0.0000439 
C    -1.8335539    0.2221633   -0.0000537 
C    -1.3254804   -1.0977063   -0.0000317 
C     0.0256764   -1.3074359    0.0000114 
C     0.9520498   -0.2316572    0.0000157 
C     2.3424365   -0.5321533    0.0000936 
C     3.3688800    0.3647775   -0.0000494 
C     4.7811105   -0.0247413    0.0000856 
H     5.2839901    0.4120780    0.8672262 
H     5.2839553    0.4114192   -0.8674100 
H     4.9191466   -1.1027529    0.0004771 
H     3.1716787    1.4279429   -0.0003095 
H     2.5966313   -1.5851775    0.0002731 
H     0.4046127   -2.3182077    0.0000305 
H    -1.9977531   -1.9406981   -0.0000442 
O    -3.1071151    0.5483038   -0.0000782 
C    -4.1261202   -0.4344674   -0.0000971 
H    -4.0674654   -1.0601171    0.8936687 
H    -4.0674208   -1.0601208   -0.8938554 
H    -5.0635880    0.1175615   -0.0001239 
H    -1.3258584    2.3053748   -0.0000550 
H     1.0964818    1.9328544    0.0000091
*
