!PBE0 def2-SV(p) Opt Freq d3 TightSCF SlowConv RIJCOSX defgrid2
 
%pal
nprocs 4
end
 
%scf
MaxIter 1500
end
 
%maxcore 3000
 

 
* xyz 1 2
C    -0.0881488   -1.0427511    0.0049226 
C    -1.4463884   -1.2046347    0.0080758 
C    -2.3155459   -0.0932133    0.0098927 
C    -1.7539853    1.1975733    0.0049310 
C    -0.3960469    1.3706457    0.0018182 
C     0.4863580    0.2563981    0.0022870 
C     1.8859829    0.5006829   -0.0022742 
C     2.8783302   -0.4410687   -0.0012993 
C     4.3005507   -0.1091797   -0.0038673 
H     4.7874695   -0.5691148    0.8617930 
H     4.7858665   -0.5754118   -0.8670421 
H     4.4861941    0.9616992   -0.0078480 
H     2.6354866   -1.4950812    0.0022319 
H     2.1834021    1.5425796   -0.0064548 
H     0.0207865    2.3662896   -0.0004359 
H    -2.4090091    2.0553840    0.0047147 
C    -3.7767596   -0.2939038    0.0003406 
H    -4.3163735    0.6264079    0.2073960 
H    -4.0839953   -0.6598317   -0.9840101 
H    -4.0667925   -1.0678716    0.7117638 
H    -1.8718086   -2.1967917    0.0097290 
H     0.5462765   -1.9137306    0.0044259
*
