18
Coordinates from ORCA-job cs_rporg_001_ox_opt_04 E -385.370959858443
  C           2.43118309452123     -0.69106805722987     -0.00011457885621
  C           2.43120290486208      0.69100840935185     -0.00024712977830
  C           1.22440640593661      1.39353541757872     -0.00028650150260
  C           0.00001314396598      0.71011504345888     -0.00001933369054
  C          -1.22436402953611      1.39356817185137      0.00026131486855
  C          -2.43117121292936      0.69106783266602      0.00028243876521
  C          -2.43120137841532     -0.69100668500383      0.00014036440015
  C          -1.22440087928336     -1.39353192572191      0.00013074570147
  C          -0.00000901683513     -0.71011471202673     -0.00002095471116
  C           1.22436766929572     -1.39355849728095     -0.00015363109518
  H           1.22812742219655     -2.47657605779297     -0.00010088798482
  H          -1.22818377094241     -2.47654793434526      0.00006499329289
  H          -3.36596320296497     -1.23554388146471     -0.00037872487664
  H          -3.36591630884533      1.23562802242267     -0.00011982666244
  H          -1.22815081250548      2.47658458346247      0.00027991309518
  H           1.22821162911991      2.47655010866414     -0.00031062849417
  H           3.36595980039014      1.23556473299548      0.00021607677854
  H           3.36591954196923     -1.23565257158537      0.00045295075006
