18
Coordinates from ORCA-job cs_rporg_002_red_opt_06 E -422.847111866247
  C          -0.72850981669734     -1.02411555820566      0.00103415636179
  C          -1.30899177176577      0.24728311460359      0.00088964486364
  C          -0.49258287867448      1.38506863455461      0.00031220345526
  C           0.88103236137250      1.25550812167684     -0.00012398211448
  C           1.48182905750061     -0.01681516546192      0.00009034972118
  C           0.65366236842226     -1.14658679505165      0.00070008191925
  H           1.09909462333247     -2.13395623068591      0.00042452231110
  C           2.89461146748161     -0.15115881100814     -0.00085910177982
  C           4.09745750068334     -0.26378636057780      0.00024863322368
  H           5.15870500656889     -0.36213826417304     -0.00135803525747
  H           1.50531105289199      2.14055483355695     -0.00083659824291
  H          -0.95653748293490      2.36398869251440      0.00040387919148
  O          -2.64174388838060      0.47698274111336      0.00127945363837
  C          -3.50894905873823     -0.66039237861100     -0.00056469268956
  H          -4.51934479966771     -0.25942361973393     -0.00115730095780
  H          -3.35454963655809     -1.26769402046221     -0.89541239081775
  H          -3.35651421282394     -1.26949456448184      0.89340293864319
  H          -1.33822179201263     -1.91636556956666      0.00170843853084
