14
Coordinates from ORCA-job cs_rporg_169_red_opt_04 E -804.903214012169
  C          -1.16669932303902     -1.24661778050607     -0.00057069329861
  C          -2.50853491718452     -0.94349967674146     -0.00057847861653
  C          -2.95456363945989      0.38441366230929     -0.00016924503100
  C          -1.99575315687571      1.40665774728040      0.00031838351739
  C          -0.64734683944280      1.12988742085636      0.00034190558652
  C          -0.17375015588379     -0.21437888096886     -0.00008464102259
  C           1.17407818866636     -0.61760437086791      0.00022518029817
  O           1.68404276173032     -1.72914847236677      0.00023736933057
  Cl          2.40298514651830      0.82550908342540      0.00035717375424
  H           0.06653155792849      1.94226390097078      0.00105464951015
  H          -2.31761194049840      2.44304411341244      0.00121721437418
  H          -4.01260446519463      0.61468605427010      0.00005755581313
  H          -3.23146169229486     -1.75301057341705     -0.00095727835064
  H          -0.83998882496983     -2.27919222765666     -0.00090359586498
