!COSMORS(Acetonitrile)
 
%pal
nprocs 20
end
 

 
%maxcore 3000
 

 
* xyz 1 2
C          -1.88926886591052     -0.71829471042902     -0.00000151658975
C          -0.69976165931068     -1.41947642476781     -0.00004682086503
C           0.52546620787527     -0.73616642455340     -0.00005070921479
C           1.80539513424131     -1.47669107886068     -0.00023735663381
H           2.41895885184776     -1.20629923183368      0.88130420897190
H           1.65030845286960     -2.56505007458612      0.00054431743935
H           2.41781413244718     -1.20753960674201     -0.88298442839847
C           0.52547898558837      0.73614990429939      0.00000366497278
C           1.80542537047235      1.47665380279544      0.00015411128337
H           2.41897294335330      1.20625813469298     -0.88139556544038
H           1.65034488477417      2.56501332425354     -0.00063843565960
H           2.41785215045554      1.20751683668618      0.88290259762033
C          -0.69973036540407      1.41946691144153      0.00005351354497
C          -1.88925441678624      0.71829392037224      0.00005440335703
H          -2.84458396121263      1.25172450263367      0.00010059257370
H          -0.70436141297793      2.51237392702987      0.00009399193885
H          -0.70439462134719     -2.51238326028565     -0.00008450613426
H          -2.84460951097560     -1.25170515214647     -0.00000996276619
*
