!PBE0 def2-SV(p) Opt Freq d3 TightSCF SlowConv RIJCOSX defgrid2
 
%pal
nprocs 4
end
 
%scf
MaxIter 1500
end
 
%maxcore 3000
 

 
* xyz 0 1
C     1.1312369    1.2159818    0.0026018 
C    -0.2501786    1.2311881    0.0075494 
C    -0.9374448    0.0241253    0.0172440 
C    -0.2513562   -1.1856629    0.0179444 
C     1.1310911   -1.1904965    0.0124383 
C     1.8370075    0.0122990    0.0043926 
C     3.3309117    0.0828070   -0.0026042 
O     3.9002494    1.1553304    0.0010437 
C     4.0806586   -1.2186378   -0.0147953 
H     3.8315979   -1.7995472    0.8704403 
H     3.8127812   -1.7947494   -0.8975908 
H     5.1488930   -1.0172268   -0.0250903 
H     1.6466296   -2.1361220    0.0144930 
H    -0.8030384   -2.1131563    0.0261137 
C    -2.4380064   -0.0037613    0.0016444 
F    -2.9309854   -0.4073687   -1.1908144 
F    -2.9520663   -0.8580575    0.9090273 
F    -3.0048073    1.1871735    0.2488806 
H    -0.7906706    2.1646861    0.0066516 
H     1.6900021    2.1394898   -0.0036217
*
