!r2SCANh aug-cc-pVTZ d3 TightSCF SlowConv RIJCOSX defgrid2
 
%pal
nprocs 4
end
 
%scf
MaxIter 1500
end
 
%maxcore 3000
 
!CPCM
%cpcm smd true
SMDsolvent "MeCN"
surfacetype gepol_ses
rsolv 2.19
end 
 
* xyz 1 2
C           1.38821397253669     -0.85710928094571      0.60741622632202
C           2.66653568645174     -1.38554775804107      0.62328529651635
C           3.74096697508373     -0.66019599701418      0.08285810563013
C           3.54023898785237      0.62233127623213     -0.45460571699329
C           2.27463505486006      1.17691753163962     -0.46404721541233
C           1.19493732351435      0.42049377974261      0.03782457404784
O          -0.00001161826735      1.03053434324458     -0.00007618077340
C          -1.19494650110222      0.42046263969238     -0.03791233087995
C          -2.27466316694698      1.17692889833622      0.46385316504035
C          -3.54025869091077      0.62232307991007      0.45446120210222
C          -3.74095306617908     -0.66026678297616     -0.08285951221376
C          -2.66650374430337     -1.38566766681220     -0.62318898600472
C          -1.38818943489976     -0.85721178830951     -0.60735323061330
H          -0.55743963132106     -1.38478510741341     -1.08197323083020
H          -2.84302940822415     -2.36075586477487     -1.08456370453300
H          -4.74708768097790     -1.08795510804427     -0.10418715284565
H          -4.38474494788350      1.18417342168211      0.86161853827017
H          -2.07820409834794      2.17105532289927      0.87220985478457
H           2.07815534201669      2.17098917949467     -0.87253031915770
H           4.38471105702739      1.18414197451138     -0.86184555829131
H           4.74710919235526     -1.08786907382573      0.10421696325696
H           2.84307759651065     -2.36058562840449      1.08475174308550
H           0.55748160115515     -1.38464569082344      1.08211306949251
*
