!COSMORS(Acetonitrile)
 
%pal
nprocs 20
end
 

 
%maxcore 3000
 

 
* xyz 0 1
C          -1.26495799748714      1.18303865458515      0.05080403605519
C          -2.60642333061191      1.31935448376271     -0.29959738324645
C          -3.44041280440145      0.20926539307814     -0.40161517964085
C          -2.90144082973563     -1.04973716221060     -0.13432170008440
C          -1.56825148928729     -1.19660014660261      0.22866378768858
C          -0.70934318580896     -0.08154664486827      0.33051202673951
N           0.61300953805947     -0.24105226876837      0.73119077146847
C           1.39986976374892     -1.37999096255953      0.29877427512661
H           2.04607670863121     -1.70992958583228      1.13451664570021
H           0.75114664396039     -2.22334685848636      0.02620697927589
C           2.27342120561242     -0.99223084807636     -0.89055156639513
H           1.61932266943223     -0.77011165873748     -1.76181164136710
H           2.95180872338646     -1.81692724050040     -1.16544343627529
O           3.08315300113024      0.11581273484299     -0.59570720798542
C           2.32868138086657      1.23424748204123     -0.20294123693064
H           3.04807602292032      2.03579294537700      0.03304751449273
H           1.68319853015679      1.57652212178956     -1.04065762734244
C           1.46842283993869      0.89253788749959      1.00660143146740
H           0.87499689376841      1.75339469243703      1.34646905231102
H           2.14234577335657      0.61412921846987      1.83973084130833
H          -1.19667964735529     -2.19528020638703      0.46959053777193
H          -3.53417239713040     -1.94099462889459     -0.19414702188547
H          -4.49070441202665      0.32074363292367     -0.68354523209589
H          -2.99695664778230      2.31986039355180     -0.51119940816597
H          -0.64456005334168      2.08028887156514      0.08361514200918
*
