!PBE0 aug-cc-pVTZ d3 TightSCF SlowConv RIJCOSX defgrid2

%pal
nprocs 10
end

%scf
MaxIter 1500
end

%maxcore 3500

!CPCM
%cpcm smd true
SMDsolvent "WATER"
surfacetype gepol_ses
rsolv 1.40
end

* xyz 1 1
  C          -0.12783464168902      0.03134307060273     -1.09515140317282
  C          -0.07771588779790     -0.92971218052811     -0.16710947357547
  C          -0.12919605245006     -0.42683937130453      1.23585814524276
  N          -0.22178468713299      1.04844033562478      0.98180183190431
  C          -0.22815278386695      1.40845079820397     -0.48344802154556
  H          -0.00562746786650     -1.99097881364679     -0.41742121227399
  O          -0.28283959618216      1.84841054848959      1.83590548918913
  C          -0.08518619128336     -0.35879109937522     -2.55276447601453
  O          -0.01182556277165     -1.53029284400420     -2.84168103743639
  C          -1.55459876437257      2.13631852567497     -0.74219631083336
  H          -1.61559639608661      2.40210019987432     -1.80874507031995
  H          -2.41672834703621      1.49039588964646     -0.50990257113543
  H          -1.60867043617204      3.06315133921376     -0.14807750091220
  C           0.99197987220583      2.31175839591414     -0.70863005539040
  H           0.90571734984683      3.23356560719802     -0.11031871750380
  H           1.92856903642825      1.78807470587538     -0.45768655458116
  H           1.04150556124239      2.59281936172848     -1.77181047702734
  C           1.15110865335917     -0.68043554170839      2.04328624127400
  H           1.23899297088630     -1.76802501138656      2.19811060240581
  H           2.04596289628099     -0.33699333930403      1.49967780306167
  H           1.09453254399261     -0.18569022918863      3.02671243361448
  C          -1.38670020602967     -0.84436366873233      2.01059021085389
  H          -2.30386467942418     -0.61864219459089      1.44313189602476
  H          -1.33732117512029     -1.93426317158842      2.16621895625276
  H          -1.41858650993659     -0.34674593001915      2.99356252765365
  N          -0.13386543071122      0.63534107507626     -3.47284130418435
  H          -0.18439275173440      1.61992840290075     -3.25301637873183
  H          -0.10209108757800      0.36432528735361     -4.45187443683860
*
