!PBE0 def2-SV(p) Opt Freq d3 TightSCF SlowConv RIJCOSX defgrid2
 
%pal
nprocs 4
end
 
%scf
MaxIter 1500
end
 
%maxcore 3000
 

 
* xyz 0 1
C    -0.3271435    0.7785477   -0.0001679 
C    -1.6146055    0.2465135   -0.0000372 
C    -1.7819758   -1.1336070    0.0000400 
C    -0.6614773   -1.9513976   -0.0000072 
C     0.6119119   -1.4229852   -0.0001126 
C     0.7999990   -0.0371341   -0.0001860 
C     2.1138906    0.5931647   -0.0002858 
C     3.2975680   -0.0161668    0.0002661 
C     4.6056613    0.6981654    0.0001531 
H     5.1863647    0.4164579   -0.8782822 
H     5.1860515    0.4173095    0.8790667 
H     4.4645851    1.7761478   -0.0003967 
H     3.3659889   -1.0952352    0.0008680 
H     2.0912310    1.6767608   -0.0008195 
H     1.4615497   -2.0866859   -0.0001703 
H    -0.7968862   -3.0234346    0.0000375 
H    -2.7634006   -1.5799568    0.0001221 
O    -2.6312810    1.1588120   -0.0000001 
C    -3.9602443    0.6877758    0.0002919 
H    -4.5862895    1.5785621    0.0004214 
H    -4.1743770    0.0930239    0.8941411 
H    -4.1747692    0.0930096   -0.8934549 
H    -0.2251876    1.8537155   -0.0002329
*
