15
Coordinates from ORCA-job cs_rporg_100_ox_opt_05 E -383.407170584609
  C           0.87171578184958     -1.42409617554909     -0.00078298087230
  C           2.10081171216337     -0.72270874238652      0.00061323635402
  C           2.17099759034662      0.67935400457293     -0.00014281385561
  C           1.02697984299500      1.44444449473944     -0.00114312335860
  C          -0.22201911892762      0.76848530655264     -0.00146840464744
  C          -0.24030820401198     -0.64714723415155     -0.00228783185100
  O          -1.55633527064312     -1.08783837058641     -0.00249859382250
  C          -2.31305708290771      0.00361945205757     -0.00009877825408
  C          -1.55266215303969      1.17889520030021      0.00028262619348
  H          -1.95194736639573      2.17851901349649      0.00292789406873
  H          -3.38068632041689     -0.14320812911255      0.00240647672802
  H           1.06393486598402      2.52353384668281     -0.00173006009596
  H           3.14008472832694      1.15499247773176      0.00062184244661
  H           3.01703488037077     -1.29526987852963      0.00317888312848
  H           0.83451761430647     -2.50261466581811      0.00019222783818
