16
Coordinates from ORCA-job cs_rporg_140_red_opt_05 E -400.834077028446
  C           0.93924085662834     -1.26523252416147     -0.00017646754033
  C           2.30908812193567     -1.03097605729146     -0.00033158603064
  C           2.79083670106238      0.27223779598679     -0.00012841794991
  C           1.89610122403117      1.34202983254025      0.00036004945491
  C           0.53024129130389      1.11225245248578      0.00045877368436
  C           0.03572296394201     -0.19874587280250      0.00008083574642
  C          -1.39375719230000     -0.50268923986292      0.00014094862380
  N          -2.27788705756171      0.41394393775255     -0.00140018087446
  O          -3.57547996423056     -0.12578713880833     -0.00077693882373
  H          -4.14362447538078      0.65772146452676     -0.00019701196708
  H          -1.68997171760419     -1.55024877447560      0.00194281684612
  H          -0.16003276171972      1.94371198195611      0.00095944221226
  H           2.26910393429992      2.35736705260086      0.00010230297886
  H           3.85642510067080      0.45728800372835     -0.00052519619886
  H           2.99745788239533     -1.86505548739580     -0.00054705826671
  H           0.56422949252746     -2.28041572677939      0.00024508810500
