!PBE0 aug-cc-pVTZ d3 TightSCF SlowConv RIJCOSX defgrid2
 
%pal
nprocs 4
end
 
%scf
MaxIter 1500
end
 
%maxcore 3000
 
!CPCM
%cpcm smd true
SMDsolvent "MeCN"
surfacetype gepol_ses
rsolv 2.19
end 
 
* xyz 0 1
C           0.21548830233766     -1.31254052777573      0.00010422762952
C           1.59988954372279     -1.21584408900209     -0.00004926404309
C           2.20799859707677      0.04926876567316     -0.00017056079371
C           1.41929623512531      1.20975167076323     -0.00015034385102
C           0.03428838131423      1.10376838714684      0.00000853976851
C          -0.57189434190993     -0.15685634129961      0.00012888388170
C          -2.05244741323264     -0.32717869220259      0.00024717867959
O          -2.60855273307034     -1.39562203145168      0.00027570374344
O          -2.69833688538420      0.84120384412168      0.00023595438148
C          -4.11294581717618      0.76544881509859      0.00031914102461
H          -4.47359030585060      0.23317558937230     -0.89509819147298
H          -4.47329861249430      1.80336428589702      0.00085057660351
H          -4.47344996909725      0.23226341742374      0.89524607056349
H          -0.58911726931978      1.99981071426323      0.00001933079670
H           1.90124452922407      2.19015192252547     -0.00025667551397
C           3.63651162843124      0.15662159321331     -0.00028047012477
N           4.79247297713842      0.24396014896989      0.00010497590390
H           2.22105451043260     -2.11448267300194     -0.00006713475520
H          -0.28337085726787     -2.28467319973482      0.00020605757830
*
