!TPSSh aug-cc-pVTZ d3 TightSCF SlowConv RIJCOSX defgrid2

%pal
nprocs 15
end

%scf
MaxIter 1500
end

%maxcore 3500

!CPCM
%cpcm smd true
SMDsolvent "WATER"
surfacetype gepol_ses
rsolv 1.40
end

* xyz 0 1
C          -0.70221578029714     -1.27137338689409     -1.64597061061339
C          -0.84845136777775     -1.37115966451546      2.54973958440251
C           0.15259783512686     -0.68335711742679      3.28861563215234
C           0.07599304676575     -0.73632666977901      4.69600426690252
C          -0.94794284945570     -1.44026936179531      5.29150860970573
C          -1.88482068115033     -2.08384823172722      4.45797199169649
N          -1.84062401823598     -2.05300130163141      3.14506781946973
H           0.83076678593274     -0.21756410750992      5.29593236316618
H          -1.03983766734326     -1.50382384093195      6.37916241782430
H          -2.71147090586821     -2.65207963836198      4.90545942856367
C          -0.79700541461204     -1.33574559017925      1.09594053855288
C           0.25272338782719     -0.61458983536816      0.46402567600272
C           0.27592476493802     -0.59903395891095     -0.94615465995929
C          -1.69468523511231     -1.95299131995214     -0.91309590762066
N          -1.74344800729213     -1.98614929368638      0.39960781073108
H           1.07040887752629     -0.05329454733419     -1.46544045359095
H          -0.71690094151293     -1.28186330233680     -2.73919465539259
H          -2.48671429614632     -2.49728707022392     -1.44500129727560
C           1.19105099618849      0.03039450570530      2.60874274845559
C           1.23921917155320      0.06350156660395      1.24952954829313
H           1.94654977095063      0.54952317690862      3.20655609141936
H           2.03412974399493      0.60974382634704      0.73244528911423
*
