!PBE0 def2-SV(p) Opt Freq d3 TightSCF SlowConv RIJCOSX defgrid2
 
%pal
nprocs 4
end
 
%scf
MaxIter 1500
end
 
%maxcore 3000
 

 
* xyz 0 1
C     2.3758739   -0.8230796    0.6782974 
C     1.2561440   -0.4196813   -0.0455205 
C     1.3444757    0.7288025   -0.8303905 
C     2.5229721    1.4490930   -0.8941619 
C     3.6304795    1.0389430   -0.1695816 
C     3.5520184   -0.0977088    0.6183817 
H     4.4103007   -0.4183988    1.1911064 
H     4.5493073    1.6048522   -0.2157695 
H     2.5778253    2.3346509   -1.5107281 
H     0.4836886    1.0496189   -1.3998671 
C    -0.0000061   -1.1909958    0.0000063 
C    -0.0000273   -2.5245055    0.0000078 
H    -0.9143278   -3.0904514    0.0518421 
H     0.9142333   -3.0905139   -0.0517961 
C    -1.2561535   -0.4196707    0.0455214 
C    -2.3758434   -0.8230191   -0.6783834 
C    -3.5519894   -0.0976466   -0.6184911 
C    -3.6304899    1.0389610    0.1695298 
C    -2.5230212    1.4490611    0.8941973 
C    -1.3445253    0.7287674    0.8304549 
H    -0.4837676    1.0495468    1.4000024 
H    -2.5779046    2.3345903    1.5108015 
H    -4.5493161    1.6048767    0.2156896 
H    -4.4102343   -0.4183037   -1.1912876 
H    -2.3148827   -1.7002420   -1.3057987 
H     2.3149403   -1.7003406    1.3056610
*
