!r2SCAN opt aug-cc-pVTZ d3 TightSCF SlowConv RIJCOSX defgrid2

%pal
nprocs 8
end

%scf
MaxIter 1500
end

%maxcore 3500

!CPCM
%cpcm smd true
SMDsolvent "MeCN"
surfacetype gepol_ses
rsolv 2.19
end 

* xyz 1 2
C           2.42348472290459     -0.91745853608407      0.59245240880380
C           1.25995896348321     -0.39202749196625     -0.02333100512405
C           1.34845533499414      0.85031226217091     -0.70354304574749
C           2.54901795106357      1.53889253592779     -0.75588972072195
C           3.68078809059867      1.01347219167219     -0.12249703890860
C           3.61293527426724     -0.21317645517309      0.55511971135216
H           4.49963825852970     -0.61051765955941      1.05572901180402
H           4.62917087127076      1.55697433746367     -0.16496199627931
H           2.61592640542583      2.48137948500377     -1.30532606762871
H           0.47393529747941      1.23580556067586     -1.23411925330570
C          -0.00001731418985     -1.11439032518152     -0.00002747562644
C          -0.00002568960524     -2.50679262514812     -0.00005487800504
H          -0.93480054732863     -3.07584961343870     -0.00342574946663
H           0.93474533226452     -3.07585703929259      0.00329162420143
C          -1.25998231282226     -0.39200541574857      0.02329276572865
C          -2.42352655120021     -0.91741544935804     -0.59247757528391
C          -3.61296415978219     -0.21311035984979     -0.55512705740855
C          -3.68079177573927      1.01353038434026      0.12250956134291
C          -2.54900448879428      1.53892565378929      0.75589582496725
C          -1.34845157706727      0.85032505299238      0.70352498564033
H          -0.47391984231340      1.23578710201298      1.23410367351677
H          -2.61589448475022      2.48140107327864      1.30534730547376
H          -4.62916722704471      1.55704319189423      0.16499523284128
H          -4.49967994828211     -0.61043350047146     -1.05572841225155
H          -2.37320187697182     -1.85878167189054     -1.14547741375033
H           2.37313869360983     -1.85882668805983      1.14544868383589
*
