!PBE0 freq def2-SV(p) d3 TightSCF SlowConv RIJCOSX defgrid2

%pal
nprocs 12
end

%scf
MaxIter 1500
end

%maxcore 5000

!CPCM
%cpcm smd true
SMDsolvent "MeCN"
surfacetype gepol_ses
rsolv 2.19
end 

* xyz 0 1
C          -1.15002892563219     -1.24227030824590     -0.00068689095473
C          -2.50893584528840     -0.95127255958232     -0.00068799517813
C          -2.93695602596559      0.37878524222099      0.00005293866179
C          -2.00422035116986      1.41730394817568      0.00042503694269
C          -0.64181134294560      1.13257108472178      0.00017856368416
C          -0.20815948427233     -0.19975352643346     -0.00017748380929
C           1.21361721282608     -0.59699264690886      0.00051077693471
O           1.63326551677283     -1.70975518046604      0.00098240148350
Cl          2.38401073561210      0.76681650782737      0.00041082854364
H           0.08722821683361      1.94526780287790      0.00019615996744
H          -2.34001166188722      2.45787737703120      0.00153848377484
H          -4.00692476932789      0.60689619518630      0.00048038344998
H          -3.24003529669949     -1.76457610429712     -0.00130155082169
H          -0.80171517885605     -2.27796383210752     -0.00142695267890
*
