!PBE0 def2-SV(p) Opt Freq d3 TightSCF SlowConv RIJCOSX defgrid2
 
%pal
nprocs 4
end
 
%scf
MaxIter 1500
end
 
%maxcore 3000
 

 
* xyz 1 2
C     2.4075733   -0.8986009    0.6096982 
C     1.2460840   -0.4385363   -0.0362764 
C     1.2955827    0.7854846   -0.7368399 
C     2.4566385    1.5256573   -0.7728106 
C     3.5954887    1.0631331   -0.1190016 
C     3.5604870   -0.1460701    0.5775222 
H     4.4399977   -0.4858904    1.1021962 
H     4.5108528    1.6327448   -0.1621646 
H     2.4909801    2.4515101   -1.3251413 
H     0.4269640    1.1116772   -1.2895314 
C    -0.0000260   -1.1928574   -0.0000180 
C    -0.0000280   -2.5547578   -0.0000520 
H    -0.9194831   -3.1168483   -0.0073010 
H     0.9194348   -3.1168530    0.0071957 
C    -1.2461133   -0.4385191    0.0362617 
C    -2.4076103   -0.8985585   -0.6097241 
C    -3.5605072   -0.1460085   -0.5775422 
C    -3.5954871    1.0631955    0.1189925 
C    -2.4566315    1.5256852    0.7728200 
C    -1.2955889    0.7855029    0.7368381 
H    -0.4269758    1.1116608    1.2895570 
H    -2.4909638    2.4515168    1.3251755 
H    -4.5108411    1.6328238    0.1621570 
H    -4.4400139   -0.4857903   -1.1022410 
H    -2.3784505   -1.8120173   -1.1821558 
H     2.3784043   -1.8120782    1.1821099
*
