!COSMORS(Water)

%pal
nprocs 4
end



%maxcore 3500



* xyz 0 2
  C          -0.11609874427787     -0.00549833146305     -1.09166051828012
  C          -0.06011683134759     -0.95278509536638     -0.14629559883637
  C          -0.12471069310473     -0.40669924924484      1.24362311758038
  N          -0.22754435037957      1.03434271135506      0.95079797263953
  C          -0.23150406587531      1.38042585937059     -0.48840792759055
  H           0.02559760749994     -2.01735042488152     -0.37607502307243
  O          -0.30719725434603      1.90352542466580      1.84763502630721
  C          -0.06026175824533     -0.38808249649150     -2.53546561747586
  O           0.04263596012876     -1.54903384399020     -2.88061155377649
  C          -1.54909261101230      2.09648655652139     -0.80036124124277
  H          -1.58247082249827      2.48576443460033     -1.83190594119848
  H          -2.40467570485958      1.41531605976659     -0.65984133217838
  H          -1.65709970518172      2.94563669192758     -0.10515427072988
  C           0.97137748294183      2.28793540378461     -0.76183532174647
  H           0.92403797538752      3.14845181915781     -0.07373708321239
  H           1.91466513722241      1.74585954892844     -0.58293263501816
  H           0.98323354337203      2.66940679234643     -1.79662980647134
  C           1.14603484773707     -0.67849930031598      2.05108178091850
  H           1.22944818447998     -1.74985812098869      2.29970024784929
  H           2.04188216597692     -0.37745827941083      1.48284498269252
  H           1.11122089200302     -0.09513329178683      2.98649209630369
  C          -1.36731121460930     -0.86517254295167      2.00958246948541
  H          -2.27834603550156     -0.69741684096779      1.41130352571173
  H          -1.30032457043791     -1.93784209757345      2.25766668368952
  H          -1.44837094192206     -0.28492100112544      2.94388101584222
  N          -0.12913367845321      0.62854904476097     -3.43820730517209
  H          -0.22721159511714      1.59778561337663     -3.17267086489660
  H          -0.09811273057999      0.38459799799591     -4.42137771112161
*
