23
Coordinates from ORCA-job cs_rporg_018_red_opt_07 E -463.384377280445
  C          -0.32910924583275      0.79566138805732      0.00105412390614
  C          -1.61773399869673      0.26221647872042     -0.00011241609275
  C          -1.79936794380523     -1.11707068506011      0.00069571977931
  C          -0.67371428727960     -1.93859046250061      0.00317712050224
  C           0.60469123546285     -1.41695310610432      0.00441958010168
  C           0.79471733551394     -0.02622626245023      0.00291031002148
  C           2.11430397433998      0.60500411846974      0.00348256025569
  C           3.29812108866340     -0.01211089048318     -0.00324856128071
  C           4.60898784417161      0.68811550241639     -0.00211080001870
  H           5.19887926867226      0.41184744182150     -0.87976826924523
  H           5.20460121977467      0.39734357362095      0.86697008782213
  H           4.48944661863695      1.77069633649110      0.00715431048812
  H           3.34072046192546     -1.09681263307506     -0.01051561804695
  H           2.10230769489580      1.69165280072256      0.00929496922486
  H           1.45234372875723     -2.08715253727964      0.00738786718307
  H          -0.81212390743979     -3.01199285457522      0.00465768316119
  H          -2.78512205644795     -1.55555625192315     -0.00066823318032
  O          -2.62679132271599      1.16489750581779     -0.00195771226351
  C          -3.95627361472459      0.66213039518484     -0.00270572185563
  H          -4.60455193001439      1.53297183321914     -0.00361551545497
  H          -4.15164199010305      0.06475977777623      0.88929267316872
  H          -4.15015671517176      0.06413076898192     -0.89454929523295
  H          -0.21536925858231      1.87240076215162      0.00000973705708
