!PBE0 freq aug-cc-pVTZ d3 TightSCF SlowConv RIJCOSX defgrid2

%pal
nprocs 12
end

%scf
MaxIter 1500
end

%maxcore 5000

!CPCM
%cpcm smd true
SMDsolvent "MeCN"
surfacetype gepol_ses
rsolv 2.19
end 

* xyz 0 1
C           0.89620802936388     -1.41157534581451     -0.00038493274979
C           2.10867959995200     -0.73992411384475      0.00002207670956
C           2.16630217567363      0.65898720343067     -0.00009095072824
C           1.01613961377696      1.42811443752859     -0.00047394801143
C          -0.21662286617131      0.77402245033705     -0.00069107676109
C          -0.23958950902736     -0.62478418745568     -0.00076531603134
O          -1.52173270750785     -1.07308373877287     -0.00055723894345
C          -2.31280414555828      0.03689497590328     -0.00005999770292
C          -1.59511338957137      1.17760109405023     -0.00025170756511
H          -1.99189743512158      2.18034130968285      0.00095683095559
H          -3.37441484282367     -0.15148245209752      0.00115033402030
H           1.07159325442371      2.50993907269932     -0.00048065491815
H           3.13402353489758      1.14587929652156      0.00059940345998
H           3.02991713867636     -1.30947786847742      0.00116886771757
H           0.83836164901730     -2.49247583369078     -0.00005688945151
*
