22
Coordinates from ORCA-job cs_rporg_009_ox_opt_05 E -388.003969573149
  C           0.87615840353976     -1.21047237910106     -0.00086961799624
  C           1.22919040354229      0.17448092535654     -0.00087394293402
  C           0.19259440247352      1.14041126841147     -0.00113190662756
  C          -1.13130156896218      0.78520807626532     -0.00072054445072
  C          -1.46577234915655     -0.60887595875059     -0.00038813420063
  C          -0.43756463247050     -1.57602876216046     -0.00070195544285
  H          -0.70764925592977     -2.62221241120185     -0.00043834478427
  C          -2.88328585119726     -1.03713570033025      0.00064610829809
  H          -2.97926976888971     -2.11919596119673     -0.00183454985186
  H          -3.40673542520208     -0.63050355108085     -0.86968444490992
  H          -3.40324026274581     -0.63534335841193      0.87543690266932
  C          -2.20803859202717      1.82048286888643     -0.00039788766255
  H          -2.84964546330808      1.71835765259878      0.87735504458566
  H          -2.85129454747040      1.71694664924329     -0.87674571898286
  H          -1.78396469904663      2.82182638424684     -0.00167509728597
  H           0.46810205581090      2.18596385593191     -0.00169923967930
  C           2.57748515051925      0.62261556119958      0.00027100964911
  C           3.67446886544004     -0.18403389883392      0.00117815114179
  H           3.60954616593401     -1.26249606101049      0.00017153150362
  H           4.66439077180657      0.24939506753414      0.00273771414902
  H           2.72870078762747      1.69479189525173      0.00024888596217
  H           1.64436220971233     -1.96761096284788     -0.00135046315006
