22
Coordinates from ORCA-job cs_rporg_009_red_opt_03 E -387.536258416008
  C           0.87092392588660     -1.20379250597718     -0.00029205897508
  C           1.23818974834214      0.15058137794588     -0.00013637588909
  C           0.20874939444694      1.10504862513686     -0.00002923428288
  C          -1.14382134195346      0.75461316440370      0.00000263246604
  C          -1.49613741810363     -0.61131545736800     -0.00008105862007
  C          -0.47119313678242     -1.56706030195557     -0.00025196267573
  H          -0.73715738689032     -2.62934815052200     -0.00001183863205
  C          -2.93546256504061     -1.03239055227320     -0.00000585264293
  H          -3.03031502704902     -2.13050353918477      0.00012803076260
  H          -3.47244170732364     -0.64605247040787     -0.88598202986624
  H          -3.47241426590431     -0.64591840881661      0.88590335274653
  C          -2.20363606198878      1.81705053691734      0.00009340806784
  H          -2.85927018088729      1.73776884939791      0.88676737313099
  H          -2.86061547532433      1.73638015922427     -0.88542943993510
  H          -1.75844964336551      2.82537353684038     -0.00111042315937
  H           0.47757393856926      2.16727814886728     -0.00015310807574
  C           2.63357700163583      0.61054450430933      0.00005678092476
  C           3.73945842299540     -0.14811593110304      0.00009235583403
  H           3.70668032419281     -1.24475021494540     -0.00006395600840
  H           4.73288254957971      0.31511891594414      0.00041550662234
  H           2.75447040597980      1.70194063266977      0.00007514849280
  H           1.63563999898482     -1.98590331910323     -0.00046725028526
