17
Coordinates from ORCA-job cs_rporg_078_red_opt_05 E -744.894748825531
  C           1.34350916887717     -0.00321633613519     -0.22066574752113
  C           0.75366377893546      1.26088475795771     -0.16815315970948
  C          -0.62136582475381      1.38649754841174     -0.07338815388678
  C          -1.43664672662495      0.25298421490777     -0.03358256310216
  C          -0.85184256271730     -1.01068030599245     -0.08893227761483
  C           0.53194187624826     -1.13076017547405     -0.17972231589544
  H           0.96870155739771     -2.11999580941880     -0.21736872529795
  H          -1.45324756476880     -1.90556315646537     -0.06029859075009
  O          -2.77548138474734      0.47734959087699      0.05884569152882
  C          -3.64261907306152     -0.65492759588482      0.10636208815990
  H          -4.65101271907959     -0.25620065037269      0.17606935880672
  H          -3.55338054537210     -1.25903578632229     -0.79876562247627
  H          -3.43638100435538     -1.27367029899396      0.98216578043936
  H          -1.07766121220310      2.36604900280828     -0.03022994166016
  H           1.36573406207810      2.15170960633472     -0.20179201027744
  S           3.10925142447067     -0.23258998218445     -0.35041873029890
  H           3.45193444967655      1.06373117594687     -0.23471538044417
