!TPSSh aug-cc-pVTZ d3 TightSCF SlowConv RIJCOSX defgrid2
 
%pal
nprocs 4
end
 
%scf
MaxIter 1500
end
 
%maxcore 3000
 
!CPCM
%cpcm smd true
SMDsolvent "MeCN"
surfacetype gepol_ses
rsolv 2.19
end 
 
* xyz 0 1
C           0.72846885788564     -1.15784028584735      0.21465716565288
C          -0.72838872754133     -1.15789194996047     -0.21471105742009
H          -1.26566912672840     -2.02298179548787      0.20783755053784
H          -0.78257562442601     -1.21600334985238     -1.32347491994052
O          -1.37931475672951     -0.00004060434601      0.24203966695526
C          -0.72847338747200      1.15785118517467     -0.21468108863207
C           0.72838447904102      1.15790308826059      0.21468626317123
H           1.26566574586215      2.02299188926254     -0.20786185075861
H           0.78257095760651      1.21601527999336      1.32345042944719
O           1.37931078309740      0.00005102545162     -0.24206320741713
H          -1.26580107006212      2.02291673363735      0.20786353677761
H          -0.78266679653089      1.21602011387656     -1.32344454690673
H           1.26579800052310     -2.02290574756220     -0.20788628184953
H           0.78266216547443     -1.21600808260041      1.32342094038269
*
