14
Coordinates from ORCA-job cs_rporg_075_ox_opt_06 E -287.370784045091
  C          -0.22425671026965     -1.23894804662569     -0.03915429994871
  C           1.14372090980897     -1.22357405260889      0.00231651867970
  C           1.83784384978862     -0.00003937417580      0.02329817169164
  C           1.14376334206484      1.22351877461944      0.00231604248843
  C          -0.22421406510671      1.23893997568461     -0.03915424938866
  C          -0.93259435862388      0.00000836436967     -0.05984881841821
  N          -2.25595812562339      0.00003185827620     -0.09827666323915
  H          -2.78011066515397      0.86533358263689     -0.11472982164657
  H          -2.78014315892559     -0.86525025626554     -0.11472567630042
  H          -0.78519731435958      2.16470079878254     -0.05639972455983
  H           1.69529566256325      2.15405461066158      0.01877004257696
  H           2.91947030959436     -0.00005855933964      0.05532497770913
  H           1.69522140564897     -2.15412853153286      0.01877864743474
  H          -0.78527278140624     -2.16468914448249     -0.05639034707904
