15
Coordinates from ORCA-job cs_rporg_100_ox_opt_06 E -383.398208586100
  C           0.87074173150924     -1.42521117009038     -0.00077633354437
  C           2.10038413544098     -0.72361553515306      0.00059400959819
  C           2.17109107208912      0.67897874793942     -0.00018819116619
  C           1.02743704324914      1.44703287807426     -0.00113389418009
  C          -0.22145384293133      0.77159194041753     -0.00143498082550
  C          -0.23957255843211     -0.64416544623900     -0.00226080613127
  O          -1.55446536386289     -1.08929008959254     -0.00245387903863
  C          -2.31268133102755      0.00255266905010     -0.00011771057880
  C          -1.55281612555641      1.18100325403041      0.00030968819915
  H          -1.95478062194049      2.18141710818445      0.00296404553735
  H          -3.38114379147553     -0.15000770782054      0.00229844195648
  H           1.06536464609561      2.52803266004670     -0.00170875987452
  H           3.14227279138779      1.15449472874872      0.00057557089407
  H           3.01743172735386     -1.29834737417914      0.00317713559608
  H           0.83125198810059     -2.50550606341691      0.00022626355806
