19
Coordinates from ORCA-job cs_rporg_150_red_opt_07 E -589.426879755261
  C           0.68391564095105     -1.22655247058186     -0.00266738917736
  C          -0.68647041441780     -1.22248076668827     -0.00129082339676
  C          -1.38497008212606      0.00441378010914      0.00001532089024
  C          -0.65993809823673      1.21353909051636     -0.00119974913039
  C           0.71356217199750      1.18840348231936     -0.00256260188874
  C           1.42901906372521     -0.02723330557364     -0.00308221614228
  C           2.88628902873509     -0.08299882288924     -0.00393359942071
  O           3.49164049414984     -1.15764221003515     -0.00513449242667
  C           3.65838250448829      1.21148675774839     -0.00176477521496
  H           3.41854265871873      1.81204944290911      0.87705350850477
  H           4.72237767695263      0.99176578266701     -0.00371497988860
  H           3.41635770560376      1.81651964026679     -0.87679812620630
  H           1.24751892861518      2.12857107690408     -0.00349010994118
  H          -1.20101500476486      2.14681744501789     -0.00072388419095
  N          -2.77220985934452      0.01966496705721      0.00276515737138
  O          -3.38014871613934      1.13164924100673      0.00399859560182
  O          -3.40462246235809     -1.07864687959425      0.00472707399881
  H          -1.25010832964527     -2.14261290459106     -0.00093590499540
  H           1.22284259309539     -2.16416314656859     -0.00334650434672
