!PBE0 aug-cc-pVTZ d3 TightSCF SlowConv RIJCOSX defgrid2
 
%pal
nprocs 4
end
 
%scf
MaxIter 1500
end
 
%maxcore 3000
 
!CPCM
%cpcm smd true
SMDsolvent "MeCN"
surfacetype gepol_ses
rsolv 2.19
end 
 
* xyz 1 2
N          -0.13330630053238      0.06463805569502     -0.18304866803580
C          -1.32995968454461     -0.05705711923400      0.61490351827717
C          -2.57421309286138      0.33481234464037     -0.19256986810199
H          -3.45480969375926      0.22323852439894      0.46049095721574
H          -2.70531629638278     -0.32397925846158     -1.06629352870040
H          -2.52831512549297      1.38214059969960     -0.53226116106563
H          -1.40987553635449     -1.09741088656851      0.96495289752573
H          -1.21877257502732      0.60521085770950      1.49113445986830
C           0.43429422987933     -1.10866495137441     -0.80815428990417
C           1.14824192611518     -2.02637648462657      0.18904742798723
H           0.46485226728110     -2.40600168320464      0.96542777225008
H           1.54101253446494     -2.89222669399406     -0.36800716513612
H           1.99361403139429     -1.51333347667236      0.67360854639463
H          -0.40183357197737     -1.65464503658306     -1.28440413538018
H           1.12467869031116     -0.77476724100708     -1.59754076820295
C           0.46556546208798      1.36302303485303     -0.38848915911148
C           1.83969934059673      1.47885748883746      0.27662539319278
H           2.56824381802577      0.77442980736822     -0.15544421644798
H           1.77196599043451      1.31206045111972      1.36382157767815
H           2.21499768699688      2.50090234957054      0.10662332519206
H           0.56270404138467      1.51155401080161     -1.48061267604024
H          -0.22507674203997      2.12332900703226      0.00577186054505
*
