!B3LYP freq aug-cc-pVTZ d3 TightSCF SlowConv RIJCOSX defgrid2

%pal
nprocs 12

end

%scf
MaxIter 1500
end

%maxcore 5000

!CPCM
%cpcm smd true
SMDsolvent "MeCN"
surfacetype gepol_ses
rsolv 2.19
end 

* xyz -1 2
C          -1.21424438201129     -0.03943277040014      0.00003623186531
C          -1.21706213052004      1.41227221746768     -0.00008354270752
C           0.00004376955452      2.07841501630212     -0.00000354271182
C           1.21711873034168      1.41222357816820      0.00008099742083
C           1.21424701896933     -0.03948211317295     -0.00002421370499
C          -0.00001273339345     -0.72572926899831      0.00000385278468
H          -0.00003342830009     -1.80735636075253      0.00000030038901
C           2.41661679545122     -0.76303157516490     -0.00009761760456
N           3.42654062907829     -1.34268878403592     -0.00016516426411
H           2.15289169312632      1.95043325045097      0.00065539089320
H           0.00006771990665      3.16205970310083     -0.00000275072425
H          -2.15281415086442      1.95052321609756     -0.00067311596939
C          -2.41665469923463     -0.76291493742502      0.00012470477081
N          -3.42661393210410     -1.34251147163760      0.00019936956283
*
