!r2SCAN freq aug-cc-pVTZ d3 TightSCF SlowConv RIJCOSX defgrid2

%pal
nprocs 12
end

%scf
MaxIter 1500
end

%maxcore 5000

!CPCM
%cpcm smd true
SMDsolvent "MeCN"
surfacetype gepol_ses
rsolv 2.19
end 

* xyz 0 1
C          -1.19920925444595     -0.02136070494928      0.00012407568039
C          -1.20333609566344      1.37936564808304      0.00039275627644
C           0.00003219276628      2.06813152737867      0.00002016578267
C           1.20337605799319      1.37932359322003     -0.00045767806270
C           1.19921106865996     -0.02140243334505     -0.00034507982526
C          -0.00001176859922     -0.73342599377694     -0.00018967377748
H          -0.00003190425948     -1.81447636978920     -0.00028702435158
C           2.43195251670775     -0.73110372302224     -0.00018694678211
N           3.43618565279514     -1.30441149870546      0.00127286979905
H           2.14400437514730      1.91370736142990     -0.00053441548435
H           0.00005384253407      3.14994804667424      0.00009921383748
H          -2.14394725740164      1.91377883775968      0.00054494581100
C          -2.43197794324479     -0.73101566411097      0.00000651527417
N          -3.43623728298916     -1.30427912684643     -0.00039962417771
*
