!PBE0 aug-cc-pVTZ d3 TightSCF SlowConv RIJCOSX defgrid2
 
%pal
nprocs 4
end
 
%scf
MaxIter 1500
end
 
%maxcore 3000
 
!CPCM
%cpcm smd true
SMDsolvent "MeCN"
surfacetype gepol_ses
rsolv 2.19
end 
 
* xyz 1 2
C           0.00952428511137      1.14381862948455     -0.00004241850549
C          -1.34405804782715      1.36835429039483     -0.00004501377751
C          -2.25803675623572      0.27994374569514     -0.00001444991813
C          -1.79893876317452     -1.05503699905501      0.00001836451112
C          -0.44966853213070     -1.30717096682290      0.00001901616088
C           0.47768132323041     -0.20754569072665     -0.00000570718377
O           1.72715481916077     -0.54575427099223      0.00000126933750
C           2.80134500679620      0.40109022692015     -0.00002708967268
H           2.75083060085294      1.02148240859275     -0.90936313619747
H           2.75076150937771      1.02163468660922      0.90919997962481
H           3.71874480964519     -0.20034761824646      0.00005825478275
H          -0.03837787308311     -2.31994207676691      0.00003911986652
H          -2.51564718597583     -1.88032469418672      0.00003900521605
H          -3.33291112256179      0.48384956913135     -0.00002166925602
H          -1.72762364845365      2.39229306604659     -0.00007349223884
H           0.71284737526787      1.97878939392230     -0.00006603274972
*
