!r2SCANh opt aug-cc-pVTZ d3 TightSCF SlowConv RIJCOSX defgrid2

%pal
nprocs 8
end

%scf
MaxIter 1500
end

%maxcore 3500

!CPCM
%cpcm smd true
SMDsolvent "MeCN"
surfacetype gepol_ses
rsolv 2.19
end 

* xyz 0 1
  C           0.86854883905712     -1.20299952045828      0.00008992918930
  C           1.23391952412192      0.14869565589549      0.00018954538621
  C           0.20774097208029      1.10218127411109      0.00019805288012
  C          -1.14084727268388      0.75216110362260      0.00006959836456
  C          -1.49190324535276     -0.60923786190636     -0.00007128688741
  C          -0.47060173327016     -1.56400517971141     -0.00005419878875
  H          -0.73629826035774     -2.61575934003162      0.00019750376119
  C          -2.93282137789164     -1.03524225090155     -0.00022152688036
  H          -3.01761262312968     -2.12248558304407      0.00004075984467
  H          -3.46171653688882     -0.65310795364597     -0.87872183720639
  H          -3.46206161703017     -0.65273935165580      0.87787911643130
  C          -2.19928764888224      1.82026592812720      0.00004646023014
  H          -2.84579444762244      1.74164595096130      0.87929405552999
  H          -2.84778429383605      1.73937856316014     -0.87749918711877
  H          -1.74958388351305      2.81378056218161     -0.00182073940709
  H           0.47527994511518      2.15443982369113      0.00007696435884
  C           2.62571657262143      0.61108651259729      0.00035855728981
  C           3.72762432264113     -0.14624967190401     -0.00036325431535
  H           3.69494754104110     -1.23020582479664     -0.00129405966314
  H           4.71027196306098      0.30996412422180      0.00002712889521
  H           2.74299401288701      1.69198153599564      0.00092566900697
  H           1.62650074783247     -1.97700089650959      0.00017274909893
*
