!r2SCANh freq aug-cc-pVTZ d3 TightSCF SlowConv RIJCOSX defgrid2

%pal
nprocs 12
end

%scf
MaxIter 1500
end

%maxcore 5000

!CPCM
%cpcm smd true
SMDsolvent "MeCN"
surfacetype gepol_ses
rsolv 2.19
end 

* xyz 0 1
C          -0.72790287594428     -1.02198521005750      0.00094226335808
C          -1.30760004498594      0.24631189942500      0.00082138244197
C          -0.49278397204333      1.38168851551365      0.00027766276762
C           0.87827908877174      1.25237864487985     -0.00011894362321
C           1.47703242750346     -0.01677448098642      0.00005624901099
C           0.65190814278135     -1.14387878920642      0.00062031180620
H           1.09666079826519     -2.12937702339487      0.00032409857759
C           2.89021368936847     -0.15111017984660     -0.00084456147008
C           4.08951739443766     -0.26368884959337      0.00029828990679
H           5.14928772159407     -0.36221626810462     -0.00120278665066
H           1.50140822647140      2.13580881463803     -0.00078750240910
H          -0.95595239033452      2.35875109510836      0.00037803953713
O          -2.63626103380706      0.47318886404658      0.00118162970748
C          -3.50135639665887     -0.65789220383379     -0.00049714501065
H          -4.51054120070469     -0.25871242039507     -0.00106719188170
H          -3.34894613221234     -1.26536120154595     -0.89336669444606
H          -3.35078688235493     -1.26697436725319      0.89159565719840
H          -1.33641846014737     -1.91269803939367      0.00157144117922
*
