!COSMORS(Acetonitrile)
 
%pal
nprocs 20
end
 

 
%maxcore 3000
 

 
* xyz 0 1
C          -1.91227700743169     -0.69599807376451      0.00000859287457
C          -0.69912772414042     -1.38283601323851     -0.00000932512484
C           0.52347537335926     -0.70523730282103     -0.00001246655685
C           1.81729612506468     -1.46787011445991     -0.00005598554550
H           2.43257350979539     -1.22714923235884      0.88628677084497
H           1.63908285531001     -2.55536142781918      0.00004381576691
H           2.43241809059381     -1.22729433644522     -0.88654856025073
C           0.52347672072489      0.70522172319425      0.00000174792219
C           1.81729888680216      1.46785238267187     -0.00000613025126
H           2.43252823855944      1.22714967649232     -0.88638787088621
H           1.63908599746497      2.55534328050588     -0.00007448538319
H           2.43246782760812      1.22725777649857      0.88644905711652
C          -0.69912402686095      1.38282421177654      0.00001495362970
C          -1.91227492778965      0.69598941815697      0.00001994929433
H          -2.85546951493968      1.25047213510866      0.00003288713645
H          -0.69794916863420      2.47800578637616      0.00002276384868
H          -0.69795562041832     -2.47801791250149     -0.00001864212487
H          -2.85547323506782     -1.25047877737254      0.00001362768912
*
