!PBE0 freq def2-SV(p) d3 TightSCF SlowConv RIJCOSX defgrid2

%pal
nprocs 12
end

%scf
MaxIter 1500
end

%maxcore 5000

!CPCM
%cpcm smd true
SMDsolvent "MeCN"
surfacetype gepol_ses
rsolv 2.19
end 

* xyz 1 2
C           1.37457252049088     -0.84886394507344      0.60560379745167
C           2.64881180850866     -1.38674384086784      0.61832478523316
C           3.72713658263739     -0.66793326762201      0.08073120284338
C           3.53563885853271      0.61724437322941     -0.45384182056619
C           2.27456205043527      1.18072054284865     -0.46387082645839
C           1.19170014388732      0.42987994221997      0.03730504064723
O           0.00002952803409      1.04470736123936     -0.00046997442410
C          -1.19171343063007      0.42983024577614     -0.03783502395609
C          -2.27442512761479      1.18066667241299      0.46355724659331
C          -3.53549512970115      0.61711656380479      0.45401116315757
C          -3.72713489927383     -0.66810865660972     -0.08035112130242
C          -2.64895840200449     -1.38690536901125     -0.61821658242069
C          -1.37471344114782     -0.84894798283421     -0.60593002827574
H          -0.54134727696904     -1.37264182211037     -1.07915712161661
H          -2.81676904947102     -2.36560313338343     -1.07427334110602
H          -4.72979788801863     -1.10301239675587     -0.09985546105962
H          -4.38361338382896      1.17310286143975      0.86095146223340
H          -2.08517835163167      2.17535033101752      0.87333169045559
H           2.08537531440382      2.17534794787629     -0.87381708937335
H           4.38387947394574      1.17322216485131     -0.86053976520012
H           4.72981199705250     -1.10279773538763      0.10059939827784
H           2.81655760174479     -2.36537220674383      1.07454333070938
H           0.54110130061830     -1.37250295031658      1.07866463815683
*
