!PBE0 def2-SV(p) Opt Freq d3 TightSCF SlowConv RIJCOSX defgrid2
 
%pal
nprocs 4
end
 
%scf
MaxIter 1500
end
 
%maxcore 3000
 

 
* xyz 1 2
C    -0.6818489   -1.0761005    0.0000271 
C    -1.3005951    0.2035749    0.0000280 
C    -0.4817793    1.3732133    0.0000071 
C     0.8780228    1.2691151   -0.0000184 
C     1.4890728   -0.0091007   -0.0000201 
C     0.6815662   -1.1746587    0.0000021 
H     1.1621119   -2.1410060    0.0000005 
C     2.8786461   -0.1275558   -0.0000489 
C     4.0837931   -0.2409296   -0.0000287 
H     5.1321403   -0.3361267   -0.0000633 
H     1.5008110    2.1500978   -0.0000368 
H    -0.9777284    2.3312786    0.0000087 
O    -2.5889544    0.4179892    0.0000439 
C    -3.5391993   -0.6276325    0.0000596 
H    -4.5122083   -0.1392857    0.0000308 
H    -3.4378534   -1.2516308   -0.8922174 
H    -3.4378810   -1.2515719    0.8923813 
H    -1.2823715   -1.9721879    0.0000465
*
