!r2SCANh aug-cc-pVTZ d3 TightSCF SlowConv RIJCOSX defgrid2

%pal
nprocs 15
end

%scf
MaxIter 1500
end

%maxcore 3500

!CPCM
%cpcm smd true
SMDsolvent "WATER"
surfacetype gepol_ses
rsolv 1.40
end

* xyz 1 1
O           1.67418114371668      3.37941862349945      1.15434517451953
N           2.62064316767579      2.68353532320648      1.21821077363263
C           3.73993026379150      2.91054121006730      0.20970750682041
C           4.36130392564807      1.55615394201201     -0.16493097978128
C           4.62693950470140      0.69901335740602      1.05364249756333
C           3.36304153274566      0.38280475677984      1.82347271406070
C           2.67247724345731      1.65441275633349      2.34006156392482
C           4.77144659115805      3.82229180911963      0.90254364472309
C           3.13466064770778      3.61114644043461     -0.99676243427434
C           3.47911508845757      2.30037383127262      3.48367565566839
C           1.24267102320542      1.38466686141498      2.78223585653897
H           5.30435815962353      1.74905887837014     -0.69848543170310
H           3.68229748767712      1.01484427915689     -0.84850427599189
H           3.60305334396738     -0.25238254910522      2.68961476485432
H           2.66820679637278     -0.17392576731557      1.16878669341899
H           4.29271611598733      4.70860976879227      1.34923722277333
H           5.37253037929227      3.29729158675115      1.65830335398642
H           5.45774493444870      4.16825914256566      0.11223951897270
H           2.78695679630107      4.62736503748115     -0.75666206631619
H           2.29625873974227      3.03524814826618     -1.42272318664526
H           3.92087891841351      3.68882501387840     -1.76468511803900
H           3.10731631344064      3.31044562450783      3.71967690908610
H           4.55901147845801      2.33249422618085      3.28233095765611
H           3.32267627795631      1.66477199454961      4.37074941627309
H           0.78000313618024      2.26411165418521      3.25536747289543
H           0.61113911289273      1.05517880381548      1.94035363615987
H           1.27425600304513      0.57114720607980      3.52446186259019
O           5.72044769993566      0.34198636029372      1.39209682163264
*
