!PBE0 def2-SV(p) Opt Freq d3 TightSCF SlowConv RIJCOSX defgrid2
 
%pal
nprocs 4
end
 
%scf
MaxIter 1500
end
 
%maxcore 3000
 

 
* xyz 1 2
C     0.8810293   -1.4186872    0.0000041 
C     2.1136641   -0.7223261   -0.0000062 
C     2.1751592    0.6673959   -0.0000102 
C     1.0238385    1.4386152   -0.0000040 
C    -0.2245209    0.7700422    0.0000063 
C    -0.2573440   -0.6537205    0.0000103 
O    -1.5602932   -1.0698938    0.0000199 
C    -2.3160862   -0.0042557    0.0000220 
C    -1.5652741    1.1834004    0.0000141 
H    -1.9528592    2.1836398    0.0000140 
H    -3.3845305   -0.1411806    0.0000310 
H     1.0631537    2.5169155   -0.0000072 
H     3.1391888    1.1518688   -0.0000182 
H     3.0282478   -1.2959000   -0.0000121 
H     0.8456882   -2.4969533    0.0000068
*
