14
Coordinates from ORCA-job cs_rporg_162_red_opt_04 E -416.500160634480
  C          -1.21098045536565     -0.03683468711294      0.00001228254539
  C          -1.21515553525190      1.41070507395901     -0.00025163650753
  C           0.00004643306122      2.07510717548855     -0.00000530653421
  C           1.21521443383751      1.41064777131588      0.00025592766646
  C           1.21097179886857     -0.03688867892072      0.00002421917968
  C          -0.00001936671636     -0.72251722463984      0.00002435901941
  H          -0.00003866033884     -1.80610059333004      0.00002069697885
  C           2.41057164616055     -0.76223955314135     -0.00020035921975
  N           3.41801404549020     -1.34396061606462     -0.00039577200660
  H           2.15225026102783      1.95014032281008      0.00097405992503
  H           0.00007663387792      3.16041677684308     -0.00001479297797
  H          -2.15216620131603      1.95024152694806     -0.00098713952981
  C          -2.41061367894525     -0.76212902486148      0.00021235829288
  N          -3.41808045438978     -1.34380856929368      0.00038200316816
