!B3LYP opt aug-cc-pVTZ d3 TightSCF SlowConv RIJCOSX defgrid2

%pal
nprocs 8
end

%scf
MaxIter 1500
end

%maxcore 3500

!CPCM
%cpcm smd true
SMDsolvent "MeCN"
surfacetype gepol_ses
rsolv 2.19
end 

* xyz -1 2
C           0.68315502285048     -1.23058998559791     -0.00197785400563
C          -0.69097039389614     -1.22820808682412     -0.00110778792906
C          -1.39878915837568      0.00192561974512      0.00006123035750
C          -0.67088260295619      1.21697689217912      0.00034729291936
C           0.70599002665524      1.19710781410292     -0.00056169847882
C           1.43890972865005     -0.02356673016238     -0.00174160392592
C           2.88835051512998     -0.09555430971111     -0.00265662366589
O           3.51113560358604     -1.16132419888811     -0.00429988492646
C           3.67215429347512      1.21312233920081     -0.00319382492201
H           3.44490427270519      1.82862721041062      0.88658626511100
H           4.74564035342603      0.96713680695522     -0.00513239151038
H           3.44193148262032      1.82994436135706     -0.89128425723845
H           1.24130264942652      2.15210104681416     -0.00032125400509
H          -1.23634900308120      2.15002194871812      0.00128004669295
N          -2.79949677516438      0.01738261553575      0.00104508920787
O          -3.38660343043673      1.11542368371417      0.00320409549424
O          -3.41030224545591     -1.06695584054066      0.00182719273433
H          -1.27295707729704     -2.15125183977829     -0.00128101747157
H           1.24384223813830     -2.16976914723049     -0.00287851443797
*
