16
Coordinates from ORCA-job cs_rporg_140_ox_opt_06 E -400.596464980712
  C           0.95207304695970     -1.31274653948082      0.00171024324073
  C           2.29693595426148     -1.05077025941702     -0.00180360108579
  C           2.74564490562460      0.28301304035791     -0.00225072573757
  C           1.84057587327552      1.35865144836522      0.00075312853233
  C           0.49349138191659      1.11505530532339      0.00339032875006
  C           0.02427360538368     -0.23465105169130      0.00357801703585
  C          -1.35114047295599     -0.54560006513922      0.00316570414075
  N          -2.23128475249055      0.43656983221899     -0.00034440256432
  O          -3.47712826866962     -0.05748805846697     -0.00596459250763
  H          -4.05700764986606      0.73073746919986     -0.00609077320268
  H          -1.68440467003123     -1.58092442557466      0.00402864715704
  H          -0.22168575875575      1.92564342902173      0.00569004353360
  H           2.21389429341544      2.37373899666266      0.00037436507207
  H           3.80964975281563      0.48364395035760     -0.00498226131459
  H           3.01561755312080     -1.85894548055729     -0.00409223875939
  H           0.57818810599576     -2.32855159118005      0.00302871770954
