18
Coordinates from ORCA-job cs_rporg_001_red_opt_03 E -385.171812424654
  C           2.43158622070990     -0.70807682269040     -0.00020664635513
  C           2.43159905145340      0.70804190147187     -0.00017646740949
  C           1.24300892419007      1.40274114352424     -0.00005091559220
  C           0.00000736952530      0.71560505519796      0.00000666471241
  C          -1.24298370952689      1.40275978046541      0.00006618729304
  C          -2.43158489384808      0.70807885033737      0.00018993225492
  C          -2.43159441615545     -0.70804027513866      0.00021282611727
  C          -1.24300385152013     -1.40273786438755      0.00008546981004
  C          -0.00000427591476     -0.71560078121854      0.00000063765771
  C           1.24298557919215     -1.40275668018698     -0.00008665342948
  H           1.23985184523739     -2.49743016663090      0.00005839605857
  H          -1.23988544791317     -2.49741127979994     -0.00006705198680
  H          -3.38299912441403     -1.24855786853129     -0.00013635946133
  H          -3.38298196753105      1.24860974449263     -0.00017706080004
  H          -1.23985051111594      2.49743361368323     -0.00010143811879
  H           1.23989357265858      2.49741523368873      0.00012152133618
  H           3.38300433832019      1.24855748960134      0.00019499312268
  H           3.38298259665254     -1.24860897387855      0.00014236479047
