18
Coordinates from ORCA-job cs_rporg_002_red_opt_05 E -422.863303783508
  C          -0.72315947260732     -1.02371635708437      0.00082909092968
  C          -1.30603679112560      0.24477470103328      0.00074165309177
  C          -0.49046849628280      1.38181095343119      0.00022884350984
  C           0.88319187673357      1.25289500356220     -0.00013866832764
  C           1.48468505992093     -0.01662209379523      0.00003511154011
  C           0.65912311594937     -1.14512780356528      0.00054679277994
  H           1.10327744968539     -2.13063460481602      0.00018127350191
  C           2.90271981895343     -0.14959633344738     -0.00080967497015
  C           4.10177525960758     -0.26069494591017      0.00038746170576
  H           5.16200418709535     -0.35803208857972     -0.00105748369128
  H           1.50459629056199      2.13724359115612     -0.00075640660261
  H          -0.95255991628650      2.35924833297707      0.00035878591475
  O          -2.64152044730231      0.46975414097600      0.00112759827714
  C          -3.51899484645114     -0.65896957727751     -0.00040919093567
  H          -4.52598592948152     -0.25156079155637     -0.00098099153683
  H          -3.37228995554482     -1.26858532119991     -0.89356693077962
  H          -3.37406383321772     -1.26999115906764      0.89209835201793
  H          -1.33053527020788     -1.91473684683626      0.00136658357495
