!B3LYP freq aug-cc-pVTZ d3 TightSCF SlowConv RIJCOSX defgrid2

%pal
nprocs 12

end

%scf
MaxIter 1500
end

%maxcore 5000

!CPCM
%cpcm smd true
SMDsolvent "MeCN"
surfacetype gepol_ses
rsolv 2.19
end 

* xyz 0 1
C           2.42315162989794     -0.70625073295968     -0.00023486882347
C           2.42317026350847      0.70622279096101     -0.00020872749326
C           1.23962157644586      1.39854452802036     -0.00005482556429
C           0.00000896416852      0.71392742435081      0.00001686247135
C          -1.23959082077649      1.39856141408207      0.00008798419557
C          -2.42315104093630      0.70625469041557      0.00020160628416
C          -2.42315899353121     -0.70622052849373      0.00022999865423
C          -1.23961384606315     -1.39854722923966      0.00010627071071
C          -0.00000530234836     -0.71392383301040      0.00000963381264
C           1.23959288686174     -1.39855587384579     -0.00009790634584
H           1.23705397111526     -2.48106204865906      0.00002858185365
H          -1.23710136192235     -2.48106479690930     -0.00002225424215
H          -3.36397421468455     -1.23990700638307     -0.00017043225420
H          -3.36396599383394      1.23995912787947     -0.00024649767024
H          -1.23704603076990      2.48106965624082     -0.00005309149296
H           1.23710215764473      2.48106237155354      0.00011919398098
H           3.36398671780065      1.23991748375437      0.00019279959814
H           3.36395073742309     -1.23996533775737      0.00017207232501
*
