!B3LYP freq aug-cc-pVTZ d3 TightSCF SlowConv RIJCOSX defgrid2

%pal
nprocs 12

end

%scf
MaxIter 1500
end

%maxcore 5000

!CPCM
%cpcm smd true
SMDsolvent "MeCN"
surfacetype gepol_ses
rsolv 2.19
end 

* xyz -1 2
C          -1.17531686143866     -1.25503786699642     -0.00042503154807
C          -2.51789319116051     -0.94596137316518     -0.00047378694648
C          -2.95990558758292      0.38606547743255     -0.00016872741316
C          -1.99631179783014      1.40774896144987      0.00024008078404
C          -0.64660237396929      1.12737046190404      0.00036661347298
C          -0.17559684772756     -0.22183537679317      0.00003208921364
C           1.16776629039477     -0.63434355599786      0.00013945472850
O           1.70305584781364     -1.73062749332088     -0.00042617971145
Cl          2.44100967447567      0.87070663847941      0.00095066522740
H           0.06788691007734      1.93555481328118      0.00090837003164
H          -2.31516818310981      2.44320063246723      0.00101439341044
H          -4.01554824988700      0.61923553468138      0.00001012816976
H          -3.24261857799848     -1.75149540884333     -0.00083880310168
H          -0.85543435205704     -2.28757144457884     -0.00078376631755
*
