!PBE0 def2-SV(p) Opt Freq d3 TightSCF SlowConv RIJCOSX defgrid2
 
%pal
nprocs 4
end
 
%scf
MaxIter 1500
end
 
%maxcore 3000
 

 
* xyz 0 1
C     1.3616506   -0.7157314    0.7044963 
C     2.6109979   -1.3083878    0.7439184 
C     3.6943517   -0.7090270    0.1238809 
C     3.5263860    0.4987781   -0.5336473 
C     2.2821652    1.0985253   -0.5842157 
C     1.1918110    0.4885438    0.0293621 
O    -0.0000161    1.1693127    0.0001228 
C    -1.1918189    0.4885184   -0.0292533 
C    -2.2822865    1.0985594    0.5840692 
C    -3.5264920    0.4987956    0.5333575 
C    -3.6943361   -0.7090879   -0.1240594 
C    -2.6108699   -1.3085084   -0.7438413 
C    -1.3615351   -0.7158355   -0.7042762 
H    -0.5199789   -1.1778470   -1.1998364 
H    -2.7357160   -2.2439536   -1.2686136 
H    -4.6655461   -1.1784812   -0.1578856 
H    -4.3673847    0.9765298    1.0132958 
H    -2.1346392    2.0402821    1.0897358 
H     2.1344207    2.0401867   -1.0899678 
H     4.3671906    0.9764603   -1.0137911 
H     4.6655703   -1.1784115    0.1575889 
H     2.7359455   -2.2437733    1.2687724 
H     0.5201783   -1.1776918    1.2002473
*
