!B3LYP freq aug-cc-pVTZ d3 TightSCF SlowConv RIJCOSX defgrid2

%pal
nprocs 12

end

%scf
MaxIter 1500
end

%maxcore 5000

!CPCM
%cpcm smd true
SMDsolvent "MeCN"
surfacetype gepol_ses
rsolv 2.19
end 

* xyz 0 1
C          -1.19875654782712     -0.02068461317221      0.00014770699312
C          -1.20232230292159      1.37810681239512      0.00041680774478
C           0.00003221565435      2.06787882446599      0.00002547321852
C           1.20235891558055      1.37806300955874     -0.00046889442332
C           1.19875690615780     -0.02072714303097     -0.00032678058801
C          -0.00001267850654     -0.73026468055861     -0.00014977741285
H          -0.00003024057827     -1.80925363338820     -0.00024133185259
C           2.43553705643988     -0.73266668889327     -0.00017180013605
N           3.43601697118398     -1.30382376954140      0.00126534714944
H           2.14074566065269      1.91228840117348     -0.00062677225602
H           0.00005677128006      3.14777204824509      0.00009169691994
H          -2.14068912484150      1.91236409347109      0.00061874419858
C          -2.43556292720909     -0.73257795918099     -0.00003461695254
N          -3.43606647506518     -1.30369520154386     -0.00048570260298
*
