!r2SCAN freq aug-cc-pVTZ d3 TightSCF SlowConv RIJCOSX defgrid2

%pal
nprocs 12
end

%scf
MaxIter 1500
end

%maxcore 5000

!CPCM
%cpcm smd true
SMDsolvent "MeCN"
surfacetype gepol_ses
rsolv 2.19
end 

* xyz 0 1
C           1.34121084398131     -0.00495315855238     -0.21343008115502
C           0.75343610268487      1.26202831590883     -0.16128874181793
C          -0.62202958835441      1.38921074816955     -0.06874000958312
C          -1.43926773469120      0.25586738599390     -0.02937119913666
C          -0.85718408243280     -1.01089159181074     -0.08362024351829
C           0.52686226921836     -1.13308789338531     -0.17407176430689
H           0.96403149691651     -2.12445996698842     -0.21325950108878
H          -1.46093973833795     -1.90701525564029     -0.05520208490864
O          -2.77579553338646      0.48556201978673      0.06109400224257
C          -3.63224563995410     -0.65561558446399      0.10051259788539
H          -4.64460483795497     -0.26439694902814      0.16766910987232
H          -3.53151588779794     -1.25455104242146     -0.80836000046022
H          -3.42189632442696     -1.27571225802905      0.97594748204140
H          -1.07896152509718      2.37087660662928     -0.02652147855490
H           1.36925621525023      2.15316487393921     -0.19328569628107
S           3.09927602620398     -0.23796720431534     -0.33361976007509
H           3.43546563817872      1.06450675420762     -0.27904293115507
*
