!B3LYP aug-cc-pVTZ d3 TightSCF SlowConv RIJCOSX defgrid2
 
%pal
nprocs 4
end
 
%scf
MaxIter 1500
end
 
%maxcore 3000
 
!CPCM
%cpcm smd true
SMDsolvent "MeCN"
surfacetype gepol_ses
rsolv 2.19
end 
 
* xyz 1 2
C          -0.08274669059718     -1.04399274826201      0.00954198550444
C          -1.44314186979999     -1.21224349192059      0.01464115375041
C          -2.32257727617337     -0.09487222329371      0.01274887003500
C          -1.76475290459407      1.20761482302953      0.00780256836072
C          -0.40273191503338      1.38761253420536      0.00299374201136
C           0.48723075022230      0.26923379961588      0.00339892002300
C           1.88361104255076      0.51997141228763     -0.00136731410568
C           2.88609272782847     -0.43252038403740     -0.00211440107444
C           4.32371272330116     -0.12403052833475     -0.00716059814151
H           4.81199450703941     -0.59263895023193      0.87108589562038
H           4.80704713115468     -0.59771697456439     -0.88539713829447
H           4.53724499406217      0.95562079688104     -0.01081444259812
H           2.61316130337916     -1.49525746809077      0.00127055185440
H           2.19060539304120      1.57295312497944     -0.00515248687208
H           0.01742107746022      2.39740330737597      0.00010725500974
H          -2.43168783850088      2.07400339025986      0.00974847718212
C          -3.79206162044774     -0.30228879497229     -0.00564898818348
H          -4.34940861071486      0.62196968873633      0.20771494941170
H          -4.10189712650768     -0.66414858988669     -1.00697947362935
H          -4.09284114272650     -1.08666315679518      0.71118909458011
H          -1.86630567510074     -2.22073732773736      0.02172898720586
H           0.56388072015687     -1.92419663924397      0.01175289234987
*
