!PBE0 freq def2-SV(p) d3 TightSCF SlowConv RIJCOSX defgrid2

%pal
nprocs 12
end

%scf
MaxIter 1500
end

%maxcore 5000

!CPCM
%cpcm smd true
SMDsolvent "MeCN"
surfacetype gepol_ses
rsolv 2.19
end 

* xyz 1 2
C          -0.70677220968052     -1.07413435828317     -0.00213622593063
C          -1.30108828390720      0.22209821487340     -0.00040980003664
C          -0.48677421115254      1.39832419729262     -0.00069823313553
C           0.87304683965566      1.28399243107086     -0.00072305560207
C           1.47940296189158     -0.00950103712422     -0.00083817066588
C           0.65643257887453     -1.17962710442746     -0.00227029317206
H           1.13160371688390     -2.16270761029983     -0.00291837670125
C           2.87190291345895     -0.13702908624490      0.00055317315452
C           4.08896538875348     -0.25140690598610      0.00186149042677
H           5.16518716050045     -0.34939707131398      0.00268890363654
H           1.50716855264376      2.17256848889861     -0.00096616210495
H          -0.98456052829787      2.37044494268477     -0.00001946736782
O          -2.58185551451159      0.42874192081295      0.00146126256191
C          -3.52182328346893     -0.64887147323666      0.00158117442890
H          -4.51098122968301     -0.17421228075081     -0.00074601665692
H          -3.39224638352222     -1.26133554372658     -0.90430951480123
H          -3.39541544520333     -1.25884368574134      0.90978050534919
H          -1.32644842323508     -1.97162193849816     -0.00168919338283
*
