!r2SCAN freq aug-cc-pVTZ d3 TightSCF SlowConv RIJCOSX defgrid2

%pal
nprocs 12
end

%scf
MaxIter 1500
end

%maxcore 5000

!CPCM
%cpcm smd true
SMDsolvent "MeCN"
surfacetype gepol_ses
rsolv 2.19
end 

* xyz 1 2
C           1.33602392096454      0.00195085261452     -0.00126411015364
C           0.74787673606179      1.28994669778956     -0.00376912543815
C          -0.60994988517845      1.40557188929593     -0.00277952680425
C          -1.42177349323046      0.24045873064659     -0.00095705449702
C          -0.83816553126259     -1.04870129338243     -0.00332706533915
C           0.52379816511238     -1.16064369007274     -0.00283531357873
H           0.98576006696298     -2.14003031519030     -0.00327940497632
H          -1.45330987153171     -1.93605337373122     -0.00358506011321
O          -2.71952889430661      0.46159925903760      0.00279606144543
C          -3.63659525594850     -0.65808194410573      0.00270500878452
H          -4.62483699005544     -0.21116714347188      0.00535653043533
H          -3.48935269433748     -1.25479246404466     -0.89628271541407
H          -3.48628689288721     -1.25840769548376      0.89889459120684
H          -1.09293200488174      2.37388554012629     -0.00253656543301
H           1.37408241364927      2.17240172742400     -0.00669641345158
S           3.03694774893306     -0.23535391496612      0.00639681113772
H           3.39333796193619      1.06999753751435      0.01125005218929
*
