!PBE0 def2-SV(p) Opt Freq d3 TightSCF SlowConv RIJCOSX defgrid2
 
%pal
nprocs 4
end
 
%scf
MaxIter 1500
end
 
%maxcore 3000
 

 
* xyz 0 1
C     4.1021447    1.2006113    0.0005205 
C     4.7961465    0.0002189    0.0000752 
C     4.1024135   -1.2003290   -0.0004531 
C     2.7208966   -1.2064217   -0.0005481 
C     2.0164526   -0.0000977   -0.0001385 
C     2.7206306    1.2063833    0.0004243 
H     2.1745859    2.1386686    0.0008192 
C     0.6041477   -0.0001785   -0.0000493 
C    -0.6041466   -0.0002840    0.0001038 
C    -2.0164517   -0.0001301   -0.0000527 
C    -2.7209029   -1.2064516    0.0004717 
C    -4.1024155   -1.2003583    0.0005276 
C    -4.7961463    0.0001933    0.0000598 
C    -4.1021421    1.2005817   -0.0004567 
C    -2.7206234    1.2063531   -0.0005121 
H    -2.1745861    2.1386435   -0.0008798 
H    -4.6422808    2.1362566   -0.0007888 
H    -5.8761281    0.0003125    0.0001173 
H    -4.6427789   -2.1359032    0.0009616 
H    -2.1750711   -2.1388618    0.0008735 
H     2.1750708   -2.1388360   -0.0009152 
H     4.6427759   -2.1358752   -0.0008250 
H     5.8761283    0.0003406    0.0001010 
H     4.6422861    2.1362837    0.0009091
*
