!TPSSh freq aug-cc-pVTZ d3 TightSCF SlowConv RIJCOSX defgrid2

%pal
nprocs 12
end

%scf
MaxIter 1500
end

%maxcore 5000

!CPCM
%cpcm smd true
SMDsolvent "MeCN"
surfacetype gepol_ses
rsolv 2.19
end 

* xyz 0 1
C          -1.19973959102589     -0.02124731187927      0.00013021228664
C          -1.20391341300694      1.37975092281472      0.00041241417976
C           0.00003181018853      2.06972132257197      0.00002030562174
C           1.20395106309798      1.37970700238710     -0.00047655634246
C           1.19974251715998     -0.02128932481862     -0.00034387087526
C          -0.00001152595579     -0.73308966007927     -0.00017866427770
H          -0.00003237942074     -1.81350313353619     -0.00026561585903
C           2.43639329805182     -0.73303174818490     -0.00016752454569
N           3.44136219415314     -1.30570048340416      0.00129922610207
H           2.14384907192228      1.91435889768384     -0.00061548440829
H           0.00005559230835      3.15118267642112      0.00010000210731
H          -2.14379428334631      1.91443247555764      0.00062392356719
C          -2.43641755610055     -0.73294369483587     -0.00002292155484
N          -3.44141259802585     -1.30556844069811     -0.00045534600143
*
