!r2SCAN freq aug-cc-pVTZ d3 TightSCF SlowConv RIJCOSX defgrid2

%pal
nprocs 12
end

%scf
MaxIter 1500
end

%maxcore 5000

!CPCM
%cpcm smd true
SMDsolvent "MeCN"
surfacetype gepol_ses
rsolv 2.19
end 

* xyz 1 2
C           0.87721955970184     -1.20996210341370     -0.00114251028656
C           1.22867095701627      0.17590272063415     -0.00092471281421
C           0.19429293870811      1.14281829112205     -0.00102239586650
C          -1.13197195811747      0.78681533222205     -0.00063846881880
C          -1.46664592271824     -0.60957921985085     -0.00036409628715
C          -0.43765173573983     -1.57690655989999     -0.00089994213469
H          -0.70944713803654     -2.62484351485609     -0.00070753151805
C          -2.88059729169912     -1.03307018747702      0.00075676547606
H          -2.98132411626939     -2.11548087818676     -0.00078867333362
H          -3.40473265028858     -0.62124725421179     -0.86856391435484
H          -3.40181104267977     -0.62445723345523      0.87344122063180
C          -2.20822581783345      1.81500259004710     -0.00037175054170
H          -2.85205732065366      1.70759027718409      0.87683729500448
H          -2.85390374500787      1.70584072354095     -0.87597703440387
H          -1.78882008599952      2.81907415545451     -0.00188412960968
H           0.47068687952919      2.19071343450304     -0.00145067104349
C           2.57614595296052      0.62247421593669      0.00033366292164
C           3.67610604990702     -0.18646918563231      0.00118982175465
H           3.60979089025452     -1.26629688619945     -0.00003716156364
H           4.66623914142931      0.24946044526317      0.00293842337002
H           2.72717236267435      1.69691097957696      0.00052907362996
H           1.64810089286234     -1.96771894230155     -0.00171977021184
*
