14
Coordinates from ORCA-job cs_rporg_169_red_opt_03 E -804.351729990290
  C          -1.16585949734636     -1.25178436534235     -0.00055858124930
  C          -2.51449062147373     -0.94932218286799     -0.00068061134910
  C          -2.96586045712802      0.38692689504620     -0.00015034429226
  C          -2.00028073333843      1.41456014462283      0.00042293936431
  C          -0.64491876058979      1.13658839365513      0.00056659786319
  C          -0.16557022572730     -0.21554508287598      0.00029087982341
  C           1.19057685365622     -0.62254527496562      0.00091973759371
  O           1.69010627828184     -1.73586780248741     -0.00006623410414
  Cl          2.41055841639759      0.82810242512851     -0.00030927282875
  H           0.08197725604939      1.95223013085963      0.00117356416967
  H          -2.32569980740533      2.46165586443289      0.00105938952267
  H          -4.03483677246866      0.61944048774339     -0.00006819472875
  H          -3.24433059888913     -1.76790769871384     -0.00116131317282
  H          -0.83204863001828     -2.29352193423541     -0.00089305661182
