!r2SCANh aug-cc-pVTZ d3 TightSCF SlowConv RIJCOSX defgrid2
 
%pal
nprocs 4
end
 
%scf
MaxIter 1500
end
 
%maxcore 3000
 
!CPCM
%cpcm smd true
SMDsolvent "MeCN"
surfacetype gepol_ses
rsolv 2.19
end 
 
* xyz 0 1
C          -0.49592270970750      1.20689036506876     -0.03130110264914
C          -1.88685532532519      1.19699753212455     -0.02314506175738
C          -2.60125975900159      0.00006218322477     -0.01917601586061
C          -1.88691051129410     -1.19690511286666     -0.02342725949643
C          -0.49597917173478     -1.20686134487156     -0.03159202517744
C           0.23868603456831     -0.00000172653772     -0.03609509009819
N           1.61626182022358     -0.00003106078646     -0.04469127469160
C           2.33183955992311      1.24597481666428     -0.04486665705751
H           3.41338665254704      1.04576364513015     -0.05323272367948
H           2.09753310431419      1.86285731996164     -0.93541110907656
H           2.10988003494310      1.85696995864317      0.85303702382408
C           2.33179343347907     -1.24606302804888     -0.04453387362300
H           3.41335300622739     -1.04589190456372     -0.05217912937846
H           2.10924230348017     -1.85707031820411      0.85320726726296
H           2.09802467704190     -1.86292175713273     -0.93524555395099
H           0.02088202703341     -2.16757371924062     -0.03449261449586
H          -2.42069136544180     -2.15271053199358     -0.02020648268014
H          -3.69441433931262      0.00008648240457     -0.01268972961591
H          -2.42058983097200      2.15282777025830     -0.01968144249458
H           0.02098115900830      2.16758023076587     -0.03391284530377
*
