!r2SCAN aug-cc-pVTZ d3 TightSCF SlowConv RIJCOSX defgrid2
 
%pal
nprocs 4
end
 
%scf
MaxIter 1500
end
 
%maxcore 3000
 
!CPCM
%cpcm smd true
SMDsolvent "MeCN"
surfacetype gepol_ses
rsolv 2.19
end 
 
* xyz 1 2
C           1.56411298308256     -1.23948514477004     -0.10418100456342
C           2.94368174819201     -1.22399346873146     -0.08222881875616
C           3.62829509556698     -0.00527124649099      0.03533216996641
C           2.91690679987594      1.20436209520410      0.12189533623917
C           1.53837367111152      1.19695452226545      0.08354541546876
C           0.81270320076294     -0.02581622100353     -0.02471147709908
C          -0.62456099600129     -0.00774337256640     -0.04364594026659
C          -1.35469923195748     -1.19559169113903      0.09103295930174
C          -2.82277389645953     -1.26777692582385      0.16984319084975
C          -3.52145036714036      0.07542391320474      0.33030984445232
C          -2.84421744986526      1.11928751618814     -0.54346013749953
C          -1.37724631745571      1.28864519852577     -0.15684571320763
H          -0.86941817273049      1.94978262536238     -0.87811192857259
H          -1.30963007910482      1.80378079157142      0.82358949269975
H          -3.35155550657584      2.09318614428475     -0.45769951109418
H          -2.91426747189626      0.82232909406415     -1.60637738831724
H          -4.58799893909126     -0.02529210685066      0.07520987112053
H          -3.47978220021016      0.38792054597581      1.38967757724746
H          -3.14919539400669     -1.77633387981961     -0.76848551187315
H          -3.10223657823725     -1.99716471247534      0.95556557069623
H          -0.82292218871793     -2.14995476101911      0.14728310793351
H           1.00142564161039      2.14381086727947      0.15925446288599
H           3.45702786598241      2.14958081367639      0.21918826417843
H           4.72206867248084      0.00454899918573      0.05884230889501
H           3.50197914639113     -2.16035785555081     -0.15869714710684
H           1.05904956439360     -2.20048274054750     -0.21144959357865
*
