!PBE0 freq aug-cc-pVTZ d3 TightSCF SlowConv RIJCOSX defgrid2

%pal
nprocs 12
end

%scf
MaxIter 1500
end

%maxcore 5000

!CPCM
%cpcm smd true
SMDsolvent "MeCN"
surfacetype gepol_ses
rsolv 2.19
end 

* xyz 0 1
  C           0.69116791963965     -1.22042767064201     -0.00218105472825
  C          -0.68866568897814     -1.21688728471247     -0.00194633458341
  C          -1.34287926165816      0.00477422224888     -0.00013115743601
  C          -0.66558781829305      1.21086375011271      0.00162648400669
  C           0.71747622510628      1.18921953314815      0.00094449061788
  C           1.40387486950527     -0.02266106612515     -0.00084432154100
  C           2.90016220334060     -0.08016864286002     -0.00137110335697
  O           3.46365077376405     -1.15606150738408      0.00121245230845
  C           3.66115316174156      1.20607323736961     -0.00478502013015
  H           3.40774890424926      1.80253891691499      0.87503857697039
  H           4.72845697533663      0.99723211199013     -0.00807602369251
  H           3.40192829740969      1.80158312191887     -0.88341307402395
  H           1.25496038766338      2.12739236076847      0.00131333484467
  H          -1.21061803163674      2.14333761474563      0.00385627971216
  N          -2.80501337983721      0.01951018767213      0.00073108876557
  O          -3.36347608071853      1.09856740268262      0.00268786252944
  O          -3.38428462770266     -1.04852709807253     -0.00024014261271
  H          -1.25316830817055     -2.13779388284060     -0.00275089386903
  H           1.23405537923867     -2.15595180693531     -0.00370614378123
*
