!PBE0 def2-SV(p) Opt Freq d3 TightSCF SlowConv RIJCOSX defgrid2
 
%pal
nprocs 4
end
 
%scf
MaxIter 1500
end
 
%maxcore 3000
 

 
* xyz 0 1
C    -1.4709509   -1.2975335    0.1704645 
C    -0.6029788   -0.0680712    0.3098932 
C    -1.0938024    1.1471309    0.0565644 
C    -2.5199844    1.4267614   -0.3203671 
C    -3.2703263    0.1647385   -0.7309840 
C    -2.9536667   -0.9478036    0.2593716 
H    -3.1909243   -0.6103475    1.2701532 
H    -3.5539666   -1.8348511    0.0461695 
H    -2.9551493   -0.1430230   -1.7305885 
H    -4.3441289    0.3610113   -0.7615661 
H    -3.0274743    1.8903772    0.5350604 
H    -2.5407779    2.1585626   -1.1339077 
H    -0.4840867    2.0327414    0.1602664 
N     0.6793631   -0.3228170    0.8111467 
C     1.5647396    0.7780251    1.1370813 
H     0.9963150    1.5978079    1.5735144 
C     2.3544541    1.2519769   -0.0911525 
H     3.0892241    2.0108706    0.1838277 
H     1.6638939    1.6664883   -0.8413092 
O     3.0874968    0.1847287   -0.6622785 
C     2.2340364   -0.8894456   -1.0026402 
H     1.5173394   -0.5646160   -1.7746262 
C     1.4612845   -1.3976181    0.2236258 
H     2.1786394   -1.7410612    0.9769146 
H     0.8238089   -2.2308400   -0.0621103 
H     2.8786959   -1.6696561   -1.4115277 
H     2.2756204    0.4082362    1.8848289 
H    -1.2829536   -1.7770915   -0.7959393 
H    -1.2117438   -2.0082945    0.9577956
*
