!COSMORS(Acetonitrile)
 
%pal
nprocs 20
end
 

 
%maxcore 3000
 

 
* xyz 1 2
C          -0.69806914174773     -1.08130758385803      0.00000478073461
C          -1.29995911913199      0.21220975823502      0.00000712364871
C          -0.48713495449795      1.39007645246692     -0.00001560397811
C           0.87407248196079      1.28097563070640     -0.00003015609287
C           1.48961473063931     -0.00988444370075     -0.00003464832734
C           0.66713129411178     -1.18242862965134     -0.00001675195059
H           1.14787115207094     -2.16374838611022     -0.00001833432844
C           2.87923367476782     -0.13303827989769     -0.00003947759998
C           4.09817372516796     -0.24492334399421     -0.00000244744274
H           5.17420938419188     -0.34031758843355     -0.00000256865577
H           1.50568477881681      2.17231925078041     -0.00004562485067
H          -0.99220253079888      2.35905562684180     -0.00001378344560
O          -2.58101948918323      0.42008257874155      0.00003691245038
C          -3.53711041258472     -0.64087278516494      0.00007811011347
H          -4.51842922650600     -0.15013878054896      0.00011237958636
H          -3.42139067434806     -1.25399713854605     -0.90847216906212
H          -3.42131652654994     -1.25398175148381      0.90862972609483
H          -1.31361454637877     -1.98259848638256      0.00002453310588
*
