!r2SCANh aug-cc-pVTZ d3 TightSCF SlowConv RIJCOSX defgrid2
 
%pal
nprocs 4
end
 
%scf
MaxIter 1500
end
 
%maxcore 3000
 
!CPCM
%cpcm smd true
SMDsolvent "MeCN"
surfacetype gepol_ses
rsolv 2.19
end 
 
* xyz 1 2
C           1.11125997383576     -1.29424514996325     -0.00265064680051
C           0.38198773558317      0.02008196306092     -0.00073603831801
C           1.09787452277410      1.23185818450004     -0.01840094347389
C           2.57516897563739      1.29944130725048     -0.05423021306044
C           3.25276060267681     -0.03006541948416     -0.36652594694293
C           2.57851945407381     -1.15958568043340      0.39766653752240
H           3.08673048588062     -2.11897794137244      0.21233290930891
H           2.64919644329653     -0.97201856058805      1.48490961905849
H           4.32300865456417      0.02994921608983     -0.11393141051059
H           3.19729504970193     -0.22847646380504     -1.45259326590540
H           2.88017444257326      2.09814619264511     -0.75665169289489
H           2.90436924042770      1.68065620438759      0.93876248720231
H           0.54894601237680      2.17778008647932      0.00559677216772
N          -0.94881866071091      0.02146974198586     -0.00750665676214
C          -1.80124595163478      1.22171206218783      0.02414035141441
C          -3.20201957398761      0.67299556712206      0.26488079247656
C          -3.16019989927783     -0.69168873479307     -0.41474108783946
C          -1.76503158912719     -1.19776594082048     -0.07505159311078
H          -1.34448546450201     -1.89626495900324     -0.81481906895254
H          -1.73682708705057     -1.69322252819275      0.91433806284159
H          -3.94379277720373     -1.38008145705625     -0.06506994380082
H          -3.26951180028075     -0.58721234569693     -1.50795872354530
H          -3.97836095131839      1.34028947438083     -0.13789958124651
H          -3.38451416042342      0.56256073325110      1.34753390290322
H          -1.45816127292513      1.91216175251807      0.80965132239800
H          -1.72037794411018      1.73381076618573     -0.95200027343459
H           0.59311740358867     -2.00524001309646      0.66292893429951
H           1.03641913556176     -1.72255585773926     -1.02261090499431
*
