!PBE0 aug-cc-pVTZ d3 TightSCF SlowConv RIJCOSX defgrid2
 
%pal
nprocs 4
end
 
%scf
MaxIter 1500
end
 
%maxcore 3000
 
!CPCM
%cpcm smd true
SMDsolvent "MeCN"
surfacetype gepol_ses
rsolv 2.19
end 
 
* xyz 1 2
C           0.46714487133843     -1.31596872615065      0.00043307960453
C           1.40171557217885     -0.23770807732832      0.00025638478659
C           0.88407949479514      1.09158487284969      0.00004092926418
C          -0.46712830128476      1.31604469822195      0.00000295911120
C          -1.40170089628676      0.23778263147851      0.00017108805360
C          -0.88406255954178     -1.09151075505496      0.00038804805116
H          -1.56465680467619     -1.94551717434521      0.00051308611121
C          -2.79688855585044      0.54394549069400      0.00010405022453
C          -3.82430179119378     -0.36186733524039      0.00028564609405
C          -5.25538349314657     -0.00243324194906      0.00029381155554
H          -5.75917453342121     -0.44813816832529     -0.87970790560214
H          -5.42346358891650      1.08552343691300     -0.00039098136190
H          -5.75876746290359     -0.44688449439862      0.88117967002482
H          -3.59373242007271     -1.43478557196118      0.00051686705574
H          -3.05807707707141      1.60899060395392     -0.00011509029154
H          -0.84761071039142      2.34119359797197     -0.00016682822425
H           1.56466696644477      1.94559472915825     -0.00010365132895
C           2.79689693733142     -0.54387663280000      0.00029128970272
C           3.82431604801398      0.36192101310663      0.00012996933116
C           5.25539100174106      0.00246938598978      0.00017091184030
H           5.75904846017879      0.44783593741242      0.88042381529925
H           5.75892633220905      0.44725096613417     -0.88045536326881
H           5.42345877365595     -1.08548600733987      0.00050393935968
H           3.59376340127937      1.43483964875828     -0.00005091579321
H           3.05807564363531     -1.60891817616373      0.00047196102492
H           0.84762319195501     -2.34111455158529      0.00059172937562
*
