18
Coordinates from ORCA-job cs_rporg_001_red_opt_08 E -386.088802679638
  C           2.42559310091464     -0.70675530560200     -0.00020820406635
  C           2.42560589439032      0.70672143858594     -0.00018605580738
  C           1.24021857556571      1.40022277563005     -0.00006194958615
  C           0.00000745592275      0.71479055077161      0.00000918770988
  C          -1.24019310232289      1.40024136680101      0.00008131171106
  C          -2.42559050382595      0.70675684502503      0.00019639886225
  C          -2.42559983653274     -0.70671902673672      0.00021470543307
  C          -1.24021325785952     -1.40021946599556      0.00009543762927
  C          -0.00000400657391     -0.71478501475394      0.00000667918809
  C           1.24019528099812     -1.40023763870471     -0.00008799287623
  H           1.23726636102536     -2.48450877872824      0.00003210589178
  H          -1.23730372715564     -2.48449340796439     -0.00003881460878
  H          -3.36789713874608     -1.24124490560639     -0.00017093912191
  H          -3.36787977279789      1.24129646032212     -0.00019506994002
  H          -1.23726583118452      2.48451230300926     -0.00005497845682
  H           1.23730755673038      2.48449566491669      0.00008021671919
  H           3.36790393451712      1.24124790930650      0.00020135426496
  H           3.36788031693475     -1.24129967027629      0.00016300705409
