!PBE0 def2-SV(p) Opt Freq d3 TightSCF SlowConv RIJCOSX defgrid2
 
%pal
nprocs 4
end
 
%scf
MaxIter 1500
end
 
%maxcore 3000
 

 
* xyz 1 2
C    -0.0062354    1.1355716   -0.0000400 
C    -1.3597270    1.3575495   -0.0000432 
C    -2.2627114    0.2811546   -0.0000138 
C    -1.7944908   -1.0395923    0.0000142 
C    -0.4475089   -1.2885389    0.0000179 
C     0.4837467   -0.2009625   -0.0000093 
O     1.7416591   -0.5433185   -0.0000072 
C     2.8018546    0.3821790   -0.0000257 
H     2.7712878    1.0200715   -0.8897275 
H     2.7711926    1.0202405    0.8895497 
H     3.7147639   -0.2123691    0.0000718 
H    -0.0484433   -2.2910587    0.0000408 
H    -2.4971849   -1.8579411    0.0000341 
H    -3.3245267    0.4752291   -0.0000126 
H    -1.7388321    2.3678175   -0.0000679 
H     0.6787836    1.9691015   -0.0000653
*
