!TPSSh aug-cc-pVTZ d3 TightSCF SlowConv RIJCOSX defgrid2
 
%pal
nprocs 4
end
 
%scf
MaxIter 1500
end
 
%maxcore 3000
 
!CPCM
%cpcm smd true
SMDsolvent "MeCN"
surfacetype gepol_ses
rsolv 2.19
end 
 
* xyz 0 1
C          -0.04647165541644      1.20175007347372     -0.00553050489943
C          -1.43870555706960      1.21239589451355     -0.01141185238374
C          -2.17026954226625      0.01947100552438     -0.01038224809804
C          -1.46074461278387     -1.19072092102756     -0.00906771027749
C          -0.07326224349215     -1.20622095149758     -0.00304890212203
C           0.65481182780619     -0.00920634999724     -0.00042230964481
C           2.14757419996696     -0.09199024361869      0.00402287730635
O           2.70671249810890     -1.16711072436472      0.00700907779024
C           2.93897617802630      1.19587993441016      0.00548036505340
H           4.01096899238357      0.95048347070739      0.01057835934714
H           2.69949954286715      1.80719828499160      0.89313893013017
H           2.70739245523851      1.80422714815017     -0.88630361962564
H           0.48538632677828     -2.14590904376286     -0.00336087408771
H          -2.01268479893227     -2.13645944857989     -0.01530874702934
C          -3.67109078228289      0.02991456776547      0.01617054647882
H          -4.04511368194266     -0.09506499069857      1.04953886808692
H          -4.07732921380228      0.97936405308667     -0.36930347193269
H          -4.09069162992769     -0.79514284196197     -0.58364116879760
H          -1.97059871816062      2.16919815395977     -0.01931477093783
H           0.49134391490087      2.15362812892619     -0.00824554435670
*
