!PBE0 def2-SV(p) Opt Freq d3 TightSCF SlowConv RIJCOSX defgrid2
 
%pal
nprocs 4
end
 
%scf
MaxIter 1500
end
 
%maxcore 3000
 

 
* xyz 1 2
C     1.8302787   -0.0001318   -0.0299887 
C     1.1379967   -1.2213412   -0.0362239 
C    -0.2315637   -1.2248200    0.0554155 
C    -0.9506824    0.0003510    0.0495366 
C    -2.4080536    0.0003056   -0.0513505 
H    -2.8001576    0.9055366   -0.5166434 
H    -2.7993153   -0.9013556   -0.5245305 
H    -2.8041136   -0.0054419    0.9792427 
C    -0.2312029    1.2252426    0.0550476 
C     1.1383840    1.2212834   -0.0366255 
H     1.6864613    2.1502236   -0.0722639 
H    -0.7753341    2.1569839    0.0992238 
H    -0.7760031   -2.1563743    0.0998790 
H     1.6857953   -2.1504579   -0.0715082 
H     2.9081839   -0.0002865    0.0530235
*
