!PBE0 def2-SV(p) Opt Freq d3 TightSCF SlowConv RIJCOSX defgrid2
 
%pal
nprocs 4
end
 
%scf
MaxIter 1500
end
 
%maxcore 3000
 

 
* xyz 1 2
C     1.1063517   -1.2850242    0.0114603 
C     0.3880564    0.0307230    0.0099642 
C     1.1022009    1.2147981   -0.0127088 
C     2.5668702    1.2877764   -0.0942397 
C     3.2410622   -0.0482832   -0.3828695 
C     2.5674041   -1.1386930    0.4393757 
H     3.0778069   -2.0912354    0.3008427 
H     2.6174512   -0.8815870    1.4986703 
H     4.3023611    0.0101960   -0.1443976 
H     3.1505557   -0.2831938   -1.4451948 
H     2.8509139    2.0473271   -0.8310988 
H     2.9286974    1.6876467    0.8653661 
H     0.5835313    2.1605461    0.0202661 
N    -0.9510145    0.0231182    0.0060256 
C    -1.7905371    1.2044033    0.0696855 
C    -3.2031495    0.6598779    0.2787171 
C    -3.1488108   -0.6825557   -0.4455148 
C    -1.7455621   -1.1795721   -0.1044473 
H    -1.3370376   -1.8525777   -0.8613012 
H    -1.7484126   -1.7053615    0.8593828 
H    -3.9210634   -1.3718692   -0.1158831 
H    -3.2456476   -0.5378885   -1.5218676 
H    -3.9615535    1.3255341   -0.1239607 
H    -3.3988764    0.5099616    1.3406348 
H    -1.4745847    1.8639400    0.8804986 
H    -1.7253569    1.7514670   -0.8781643 
H     0.6025669   -1.9867159    0.6790752 
H     1.0692578   -1.7072461   -0.9989531
*
