!B3LYP freq aug-cc-pVTZ d3 TightSCF SlowConv RIJCOSX defgrid2

%pal
nprocs 12

end

%scf
MaxIter 1500
end

%maxcore 5000

!CPCM
%cpcm smd true
SMDsolvent "MeCN"
surfacetype gepol_ses
rsolv 2.19
end 

* xyz 1 2
  C           1.36912960755769     -0.83279110568741      0.61679395855222
  C           2.63465589398093     -1.37702738898234      0.63278792293411
  C           3.71214668973516     -0.67431714416636      0.08508011264428
  C           3.52798008915069      0.60080221027963     -0.46473966991936
  C           2.27570986893554      1.17034272504090     -0.47871902367158
  C           1.19569777635559      0.43492172472125      0.03485400308527
  O           0.00007361431502      1.06595302260962     -0.00133468065455
  C          -1.19560209911849      0.43478010524600     -0.03656496434721
  C          -2.27510171291874      1.17005711949632      0.47809524205750
  C          -3.52739619949150      0.60037787811388      0.46574765949380
  C          -3.71214817755744     -0.67472582356855     -0.08372336821308
  C          -2.63521941299972     -1.37736695307578     -0.63270045944940
  C          -1.36973634246555     -0.83293272169813     -0.61827944587498
  H          -0.54213779936240     -1.33848976369374     -1.09079697163181
  H          -2.79699055434290     -2.34043682015593     -1.09397451179892
  H          -4.70076620393367     -1.11011013012065     -0.10533002265876
  H          -4.36836352422177      1.13810055022204      0.87810726366249
  H          -2.09436396463241      2.14945066967456      0.89612828830785
  H           2.09538497783501      2.14975657985010     -0.89693714937713
  H           4.36943718086059      1.13863304227318     -0.87590758533831
  H           4.70078479609400     -1.10963495051877      0.10778419141952
  H           2.79603582352822     -2.34001858858174      1.09431164838037
  H           0.54082047269613     -1.33756853727805      1.08878316239771
*
