!PBE0 def2-SV(p) Opt Freq d3 TightSCF SlowConv RIJCOSX defgrid2
 
%pal
nprocs 4
end
 
%scf
MaxIter 1500
end
 
%maxcore 3000
 

 
* xyz 0 1
C     2.5646754   -0.7990404    0.4592833 
N     1.3204316   -1.4101927    0.0642564 
C     0.3300490   -0.6859884   -0.2806457 
N     0.3149975    0.6802208   -0.3308504 
C    -0.8902574    1.4305593   -0.5958926 
C    -1.9693198    1.2685736    0.4828483 
C    -2.8230474    0.0202204    0.2759970 
C    -2.0334050   -1.2826670    0.3793531 
C    -0.9255652   -1.4186830   -0.6723943 
H    -1.2869551   -1.0734014   -1.6424932 
H    -0.6474611   -2.4687516   -0.7635087 
H    -1.5885270   -1.3697274    1.3730383 
H    -2.7303310   -2.1149012    0.2575137 
H    -3.6186613    0.0080459    1.0248158 
H    -3.2970332    0.0737051   -0.7075890 
H    -1.4898189    1.2307391    1.4632221 
H    -2.6197877    2.1452278    0.4610425 
H    -1.3014905    1.1348639   -1.5668223 
H    -0.6038757    2.4829309   -0.6669068 
C     1.4419736    1.3936974    0.2344640 
C     2.7263064    0.6282114   -0.0657865 
H     3.5813035    1.1211521    0.3972367 
H     2.8788721    0.5976665   -1.1465302 
H     1.4841995    2.3932851   -0.2095404 
H     1.3252640    1.5087918    1.3229166 
H     2.6231881   -0.8071560    1.5564024 
H     3.3727740   -1.4396660    0.0881287
*
