22
Coordinates from ORCA-job cs_rporg_009_ox_opt_08 E -388.275393020439
  C           0.87934177719241     -1.21067540660195     -0.00127873260104
  C           1.22966791062708      0.17589003644793     -0.00125005722435
  C           0.19352686925839      1.14394656984736     -0.00149111275385
  C          -1.13231520397495      0.78669329491317     -0.00080306214070
  C          -1.46510504021522     -0.60862399997749     -0.00045500870784
  C          -0.43665639825098     -1.57759018274227     -0.00099349821475
  H          -0.70917370093293     -2.62489490442543     -0.00073797390594
  C          -2.88479791521646     -1.03557146730207      0.00080899159998
  H          -2.97980028341228     -2.11915960591924     -0.00182011474649
  H          -3.40673479059727     -0.62649482246360     -0.87115912381210
  H          -3.40296145288668     -0.63162433998259      0.87752191630673
  C          -2.21247122678077      1.81955994873864     -0.00029432696288
  H          -2.85324170622999      1.71349474221483      0.87950825273153
  H          -2.85540680542070      1.71180541522823     -0.87828832533143
  H          -1.78822029274995      2.82234871748346     -0.00184938620887
  H           0.47021734271422      2.19118748703079     -0.00206712775511
  C           2.57817781960178      0.62528629337631      0.00008691264437
  C           3.67640956189093     -0.18720388000109      0.00158255559163
  H           3.60637790042259     -1.26715194135535      0.00094270566920
  H           4.66908776941111      0.24379950163999      0.00343851393053
  H           2.73036007583250      1.69884477458196     -0.00006108912333
  H           1.65095458971720     -1.96729503073156     -0.00180740898531
