!TPSSh opt aug-cc-pVTZ d3 TightSCF SlowConv RIJCOSX defgrid2

%pal
nprocs 8
end

%scf
MaxIter 1500
end

%maxcore 3500

!CPCM
%cpcm smd true
SMDsolvent "MeCN"
surfacetype gepol_ses
rsolv 2.19
end 

* xyz 1 2
C           0.87744843065952     -1.21883020305656     -0.00000377931808
C           1.23614385256415      0.16954678831828     -0.00005753568123
C           0.19424149048169      1.13860709962105     -0.00010423188513
C          -1.13871229830849      0.78765011017298     -0.00010761886515
C          -1.47639805753200     -0.61212175919558     -0.00004559988331
C          -0.44313247207265     -1.58385318757954     -0.00000224391858
H          -0.71685810144297     -2.64212602539406      0.00003056402544
C          -2.89571606376255     -1.03893857261662      0.00008867922043
H          -3.00213765434000     -2.13324643661373     -0.00058232712929
H          -3.42610981706820     -0.62983884560970     -0.88112182092760
H          -3.42539618531857     -0.63109402296886      0.88234176195400
C          -2.21290888782919      1.82515453001126     -0.00014347524999
H          -2.86411247883622      1.72648441322314      0.88680265880356
H          -2.86402349010390      1.72654581117049     -0.88716064088710
H          -1.78890328618740      2.84026297434392     -0.00008728403417
H           0.46977060139751      2.19725330423840     -0.00014030748002
C           2.58814654556121      0.62001515372005     -0.00006319236512
C           3.70337676945614     -0.17841322402212     -0.00002927580579
H           3.65253331490638     -1.27227115038024      0.00001025225905
H           4.70281234102144      0.26973736826902     -0.00003315173613
H           2.73668489690756      1.70605493317894     -0.00009332036310
H           1.65048734984656     -1.99000785883051      0.00003538926729
*
