!TPSSh aug-cc-pVTZ d3 TightSCF SlowConv RIJCOSX defgrid2
 
%pal
nprocs 4
end
 
%scf
MaxIter 1500
end
 
%maxcore 3000
 
!CPCM
%cpcm smd true
SMDsolvent "MeCN"
surfacetype gepol_ses
rsolv 2.19
end 
 
* xyz 1 2
C           0.76309641907195     -1.16293983433003      0.23718381873604
C          -0.76304171601446     -1.16296952747842     -0.23724555362178
H          -1.27590174641137     -2.02340834769785      0.21800270990120
H          -0.77362876837767     -1.19896716686552     -1.34057732579590
O          -1.30210126379069     -0.00003866110666      0.26158364977248
C          -0.76310446688411      1.16294442598402     -0.23720418219692
C           0.76303513090937      1.16298601934474      0.23722214632434
H           1.27589626879449      2.02341629109980     -0.21804063751063
H           0.77362940968102      1.19899371952034      1.34055360051981
O           1.30210147370824      0.00004813344550     -0.26159746316919
H          -1.27602354622748      2.02334978586835      0.21803685187514
H          -0.77366667806753      1.19894468683083     -1.34053597047731
H           1.27601869897724     -2.02334025573413     -0.21806265273971
H           0.77366218463101     -1.19894196888098      1.34051380838241
*
