!r2SCANh freq aug-cc-pVTZ d3 TightSCF SlowConv RIJCOSX defgrid2

%pal
nprocs 12
end

%scf
MaxIter 1500
end

%maxcore 5000

!CPCM
%cpcm smd true
SMDsolvent "MeCN"
surfacetype gepol_ses
rsolv 2.19
end 

* xyz 0 1
C          -1.15392922191135     -1.23942358079015     -0.00033438279973
C          -2.50422019570297     -0.94690942098571     -0.00064911083838
C          -2.92818261244934      0.37741368929610     -0.00023003535601
C          -1.99948732100566      1.40992288762839      0.00038849392202
C          -0.64441104161141      1.12654497944964      0.00053714619069
C          -0.21592705931225     -0.20032606962232      0.00018839357834
C           1.19401383776494     -0.59981419272812      0.00043742363814
O           1.62886509375099     -1.70392219565059      0.00053711514289
Cl          2.38519254605417      0.77980830245179     -0.00048539828339
H           0.07434329528273      1.93090109524769      0.00104375439496
H          -2.33087220472178      2.43858994619377      0.00144112212744
H          -3.98560783021460      0.60379266803139     -0.00016304867746
H          -3.22817895398359     -1.74948114306850     -0.00130472640241
H          -0.81227553193987     -2.26416296545336     -0.00091204663711
*
