!PBE0 aug-cc-pVTZ d3 TightSCF SlowConv RIJCOSX defgrid2
 
%pal
nprocs 4
end
 
%scf
MaxIter 1500
end
 
%maxcore 3000
 
!CPCM
%cpcm smd true
SMDsolvent "MeCN"
surfacetype gepol_ses
rsolv 2.19
end 
 
* xyz 1 2
C          -0.91447665052191     -0.47212024963727      0.00305742174444
C          -2.18959675934569      0.11971421337046      0.01409102309685
C          -2.29388700864009      1.49579494614513      0.03719397935039
C          -1.14208865599825      2.32820910625960      0.04995116881801
C           0.10947335768495      1.76881259512950      0.03960538148135
C           0.28212991065801      0.35726166855364      0.01600485453252
C           1.54760711026767     -0.28724291022231      0.00423169337063
C           2.77332093532235      0.34213760096678      0.01571595747138
C           4.06622172347746     -0.36316154066438      0.00304916339958
H           3.96002045066298     -1.45844987469069     -0.01793750531576
H           4.66637612050733     -0.03672280648830     -0.86953860101039
H           4.66526755704250     -0.07044112617912      0.88830060381995
H           2.81784562071465      1.43840343521638      0.03577451797111
H           1.53655051969215     -1.38139322639124     -0.01527207677871
H           0.98749423584764      2.41741461359963      0.04936131634716
H          -1.26152864583437      3.41417242331339      0.06788229194881
H          -3.28641699296290      1.95584755491465      0.04577091193408
H          -3.08960840973113     -0.49602884724601      0.00463129800869
O          -0.70644499866046     -1.76403981031241     -0.01892493742312
C          -1.78404812347373     -2.69340134662684     -0.03465822668874
H          -2.39834499922984     -2.55118103918316     -0.93925561775505
H          -2.39845270509497     -2.58207749303523      0.87418511117935
H          -1.31890279238437     -3.68732048679220     -0.05153622950254
*
