!r2SCANh opt aug-cc-pVTZ d3 TightSCF SlowConv RIJCOSX defgrid2

%pal
nprocs 8
end

%scf
MaxIter 1500
end

%maxcore 3500

!CPCM
%cpcm smd true
SMDsolvent "MeCN"
surfacetype gepol_ses
rsolv 2.19
end 

* xyz 0 1
  C          -1.14933226451234     -1.23882509190584     -0.00046672280380
  C          -2.50857813675911     -0.94988227106401     -0.00054346756040
  C          -2.93817015440872      0.37868475331297     -0.00006408928605
  C          -2.00629101009504      1.41668452923491      0.00049673263770
  C          -0.64374499246001      1.13250357756874      0.00056381244254
  C          -0.20908515748665     -0.19753416758703      0.00007645085547
  C           1.21837162790625     -0.59720306751016      0.00007667382631
  O           1.62341721296480     -1.71314820484524     -0.00012734829677
  Cl          2.38206247173385      0.76415186429790      0.00056602291059
  H           0.09169908378046      1.93929798920226      0.00098639048783
  H          -2.34320651232058      2.45698180479248      0.00087795608335
  H          -4.00834754942676      0.60618222514384     -0.00012604204670
  H          -3.23886079813446     -1.76401666244183     -0.00098417146236
  H          -0.79061102078168     -2.27094327819897     -0.00083749778771
*
