!PBE0 freq def2-SV(p) d3 TightSCF SlowConv RIJCOSX defgrid2

%pal
nprocs 12
end

%scf
MaxIter 1500
end

%maxcore 5000

!CPCM
%cpcm smd true
SMDsolvent "MeCN"
surfacetype gepol_ses
rsolv 2.19
end 

* xyz 0 1
C           2.40481955159202     -0.84318523236145      0.66544422673898
C           1.27487251350868     -0.39547626575520     -0.03711765117464
C           1.38734999633019      0.77827946227567     -0.80035043540922
C           2.59447422348058      1.47062806607823     -0.87334582308636
C           3.71196930451870      1.00997426992960     -0.17485041404798
C           3.61148137461806     -0.14878814488009      0.59663934588205
H           4.47776264206944     -0.51097571154157      1.15880191881276
H           4.65783925417296      1.55779604357226     -0.22589428656335
H           2.66276985595120      2.37782866066816     -1.48157128834009
H           0.51945949504450      1.14722976422839     -1.35475810369414
C          -0.00001225303301     -1.15759535927387      0.00005215341109
C           0.00003845358655     -2.50441379586921     -0.00002108732244
H          -0.93254746393268     -3.07545765013236      0.07117873668010
H           0.93267642552387     -3.07536464584256     -0.07131895318495
C          -1.27493248684021     -0.39554176170869      0.03723158351638
C          -2.40483054260556     -0.84317160499371     -0.66544656387461
C          -3.61145637475591     -0.14869736748634     -0.59676450010248
C          -3.71196335786590      1.01007044868945      0.17470604639860
C          -2.59453249061839      1.47063225231107      0.87334745294679
C          -1.38748651417971      0.77816690078571      0.80049284882024
H          -0.51966664654650      1.14699887976811      1.35508270476548
H          -2.66282303474380      2.37782566902211      1.48158317723639
H          -4.65779793894321      1.55796463471701      0.22562562324172
H          -4.47769799730487     -0.51083905300715     -1.15901640655114
H          -2.32959495770409     -1.73833244437018     -1.28980543377532
H           2.32959886867710     -1.73835001482339      1.28979862867613
*
