!PBE0 def2-SV(p) Opt Freq d3 TightSCF SlowConv RIJCOSX defgrid2
 
%pal
nprocs 4
end
 
%scf
MaxIter 1500
end
 
%maxcore 3000
 

 
* xyz 0 1
C     0.9031453   -1.4115099    0.0000065 
C     2.1070256   -0.7349507   -0.0000096 
C     2.1601855    0.6610672   -0.0000104 
C     1.0129777    1.4247103   -0.0000037 
C    -0.2156624    0.7667143    0.0000046 
C    -0.2513171   -0.6430175    0.0000053 
O    -1.5359402   -1.0770544    0.0000148 
C    -2.3137056    0.0345708    0.0000095 
C    -1.5866237    1.1753241    0.0000165 
H    -1.9607232    2.1781533    0.0000170 
H    -3.3739628   -0.1295379    0.0000114 
H     1.0570737    2.5029351    0.0000107 
H     3.1245066    1.1468692   -0.0000043 
H     3.0287422   -1.2965653   -0.0000010 
H     0.8533285   -2.4887323    0.0000175
*
