14
Coordinates from ORCA-job cs_rporg_075_red_opt_05 E -287.569413516080
  C          -0.22938216892095     -1.20479247925438      0.00396582287321
  C           1.15879280619974     -1.19891994303023      0.00048961089201
  C           1.86692543296502     -0.00003037472508     -0.00010863809047
  C           1.15882121203458      1.19887643003151      0.00049015401401
  C          -0.22935321270406      1.20478320627580      0.00396642138819
  C          -0.94493516370774      0.00000401864968      0.00683465392409
  N          -2.33384911007362      0.00002140996349      0.06967076453689
  H          -2.78456328610784      0.83627561818059     -0.26956666435696
  H          -2.78458344374657     -0.83622309855912     -0.26956350532588
  H          -0.76963731943957      2.14318579133597      0.00409054358837
  H           1.69050558637696      2.14155822553077     -0.00409737662978
  H           2.94806537458929     -0.00004397000581     -0.00404379590803
  H           1.69045199158693     -2.14161615950346     -0.00409990138170
  H          -0.76968909905218     -2.14317967488972      0.00409561047603
