26
Coordinates from ORCA-job cs_rporg_015_ox_opt_07 E -540.358134030950
  C           2.41406134966037     -0.93169335327331      0.55998776782656
  C           1.25658624186347     -0.38085213389331     -0.02680261405845
  C           1.34766384210902      0.86990040328931     -0.67318916037982
  C           2.54768577241423      1.54518081856612     -0.71842033575055
  C           3.67462304587141      0.99858383231152     -0.11034154925938
  C           3.60241893425178     -0.23813524145180      0.53098772488523
  H           4.47981535591466     -0.65128881377169      1.00720596147882
  H           4.61528857490136      1.53026191557999     -0.14535215356960
  H           2.61573060832590      2.49050904747908     -1.23698234927040
  H           0.48258335155832      1.27136935977582     -1.18043268997231
  C          -0.00000510204407     -1.09403988099897      0.00025093698938
  C          -0.00001162831625     -2.48082463948304      0.00030665813428
  H          -0.92334814798310     -3.03924445136199     -0.02277078687597
  H           0.92330814212593     -3.03926654456933      0.02349656530856
  C          -1.25661480804341     -0.38085880162295      0.02714244725267
  C          -2.41387046266192     -0.93151396101068     -0.56023026579814
  C          -3.60218749019139     -0.23786343344276     -0.53167007147424
  C          -3.67459368778643      0.99876690378460      0.10979257475993
  C          -2.54790810215906      1.54514772624155      0.71854367005524
  C          -1.34794503149894      0.86974510557680      0.67376456368082
  H          -0.48317209612389      1.27106017293854      1.18165205797745
  H          -2.61609837923781      2.49040080957273      1.23723044821320
  H          -4.61522266136632      1.53053342813538      0.14438215708937
  H          -4.47937454425590     -0.65085706688590     -1.00841403403457
  H          -2.35782706224080     -1.87876675059794     -1.07612286448476
  H           2.35818138491287     -1.87904845088776      1.07570944127665
