!PBE0 def2-SV(p) Opt Freq d3 TightSCF SlowConv RIJCOSX defgrid2
 
%pal
nprocs 4
end
 
%scf
MaxIter 1500
end
 
%maxcore 3000
 

 
* xyz -1 2
C    -1.3714028   -1.2152054   -0.0000882 
C     0.0015596   -1.2174295   -0.0000911 
C     0.7171204   -0.0000088   -0.0000103 
C     0.0015854    1.2174271    0.0000885 
C    -1.3713771    1.2152317    0.0000960 
C    -2.0435623    0.0000203    0.0000032 
F    -3.4158908    0.0000349   -0.0000014 
H    -1.9315530    2.1372962    0.0001725 
H     0.5629586    2.1383570    0.0001583 
N     2.0878299   -0.0000234   -0.0000103 
O     2.7295061   -1.1125487   -0.0001042 
O     2.7295297    1.1124883    0.0000277 
H     0.5629137   -2.1383710   -0.0001611 
H    -1.9315980   -2.1372582   -0.0001570
*
