!r2SCAN freq aug-cc-pVTZ d3 TightSCF SlowConv RIJCOSX defgrid2

%pal
nprocs 12
end

%scf
MaxIter 1500
end

%maxcore 5000

!CPCM
%cpcm smd true
SMDsolvent "MeCN"
surfacetype gepol_ses
rsolv 2.19
end 

* xyz -1 2
C          -1.21552641304060     -0.03915748393913      0.00000570968935
C          -1.21818401284627      1.41246747975617     -0.00019916168077
C           0.00004575194503      2.07821608681340     -0.00000383617160
C           1.21824479268325      1.41241105503140      0.00019938304063
C           1.21552073871961     -0.03921433859228      0.00000659774519
C          -0.00001914115867     -0.72712237035481      0.00000924617106
H          -0.00004478660462     -1.81101100709407      0.00001482545438
C           2.41487952819885     -0.76118289525882     -0.00016104638652
N           3.42852427482002     -1.34414683476652     -0.00030758239841
H           2.15600016066914      1.95129429915732      0.00085572108260
H           0.00007111085318      3.16389487142419     -0.00000899244407
H          -2.15591457124299      1.95139391880307     -0.00086432307774
C          -2.41491830490206     -0.76107153731095      0.00017906911949
N          -3.42858822809389     -1.34399154366899      0.00032528985641
*
