!PBE0 def2-SV(p) Opt Freq d3 TightSCF SlowConv RIJCOSX defgrid2
 
%pal
nprocs 4
end
 
%scf
MaxIter 1500
end
 
%maxcore 3000
 

 
* xyz 0 1
C    -1.3726980   -1.2170953   -0.0001414 
C     0.0079465   -1.2148660   -0.0000988 
C     0.6891272   -0.0000049    0.0001095 
C     0.0079595    1.2148636    0.0001318 
C    -1.3726850    1.2171073    0.0000980 
C    -2.0386443    0.0000096   -0.0000234 
F    -3.3837157    0.0000169   -0.0000498 
H    -1.9337906    2.1373593    0.0001840 
H     0.5683967    2.1366689    0.0002554 
N     2.1245713   -0.0000126    0.0004268 
O     2.6982893   -1.0730408   -0.0001132 
O     2.6983010    1.0730090   -0.0004524 
H     0.5683745   -2.1366770   -0.0001620 
H    -1.9338130   -2.1373415   -0.0002512
*
