16
Coordinates from ORCA-job cs_rporg_140_red_opt_08 E -401.075461967682
  C           0.94009825330181     -1.26849252534168     -0.00015167285188
  C           2.31079176479048     -1.03189422926425     -0.00033891543076
  C           2.79135333465137      0.27361549745027     -0.00016271328393
  C           1.89404753644224      1.34339762236094      0.00034308120661
  C           0.52708009271380      1.11205935825631      0.00049585472188
  C           0.03391666720126     -0.20151381173114      0.00012897958905
  C          -1.39370455487745     -0.50840597438755      0.00019952660199
  N          -2.27567893725877      0.41751546869732     -0.00125987508202
  O          -3.57470377166118     -0.12235311829689     -0.00061261806418
  H          -4.13780867708560      0.66753942412117     -0.00050439136075
  H          -1.69161262019616     -1.55662129580922      0.00187305497849
  H          -0.16668793680415      1.94316621854277      0.00101643186904
  H           2.26628819296066      2.36080655245493      0.00008512755555
  H           3.85831707944990      0.46054737107775     -0.00057109033256
  H           3.00125964581448     -1.86646232530746     -0.00057216211469
  H           0.56473833055730     -2.28550253282329      0.00023878199817
