18
Coordinates from ORCA-job cs_rporg_001_red_opt_07 E -385.800313523483
  C           2.41883634327680     -0.70475573534608     -0.00021759826276
  C           2.41884707751691      0.70472192859667     -0.00017963989267
  C           1.23682983461157      1.39685836481683     -0.00007911352578
  C           0.00000751543743      0.71310872105300     -0.00000848561156
  C          -1.23680396405308      1.39687886089851      0.00007631229963
  C          -2.41883123669556      0.70475885201605      0.00020006959905
  C          -2.41884042460760     -0.70471724927561      0.00023059249725
  C          -1.23682665670851     -1.39685772700677      0.00009986535106
  C          -0.00000313531741     -0.71311096961137     -0.00001142508623
  C           1.23681063383579     -1.39687738674671     -0.00011442935990
  H           1.23376299031208     -2.47970117212649     -0.00001151904688
  H          -1.23380026889571     -2.47968286378131     -0.00000554176980
  H          -3.35976668153918     -1.23841699592363     -0.00014868825182
  H          -3.35975201654282      1.23847337932962     -0.00020534716611
  H          -1.23375355085069      2.47970426447108     -0.00005167649403
  H           1.23379221633742      2.47968483001350      0.00005679587301
  H           3.35977016390712      1.23842771560662      0.00026716016146
  H           3.35975245997543     -1.23847471698393      0.00017906868608
