!PBE0 def2-SV(p) Opt Freq d3 TightSCF SlowConv RIJCOSX defgrid2
 
%pal
nprocs 4
end
 
%scf
MaxIter 1500
end
 
%maxcore 3000
 

 
* xyz -1 2
C    -1.6362796    1.2177024   -0.1387218 
C    -2.4040683    0.0340801    0.0421310 
C    -1.6569744   -1.1650813    0.1942287 
C    -0.2921498   -1.1681583    0.1666660 
C     0.4703004    0.0117811    0.0010498 
C    -0.2739476    1.2074636   -0.1513924 
H     0.2495024    2.1408232   -0.3176867 
C     1.9124696   -0.0009376   -0.0042441 
C     2.6479152   -1.1620564   -0.3193477 
C     4.0243657   -1.1712506   -0.3162075 
C     4.7425704   -0.0246611   -0.0005843 
C     4.0428987    1.1344195    0.3114272 
C     2.6665684    1.1481790    0.3106592 
H     2.1527168    2.0598191    0.5836305 
H     4.5849443    2.0369226    0.5659678 
H     5.8230499   -0.0336586    0.0018302 
H     4.5523070   -2.0818210   -0.5702662 
H     2.1202513   -2.0641764   -0.5955663 
H     0.2219886   -2.1099119    0.3135610 
H    -2.1781158   -2.1012089    0.3442938 
C    -3.8248478    0.0957741    0.0625219 
O    -4.4804917    1.1712938   -0.0679996 
C    -4.5977342   -1.2098284    0.2515670 
H    -5.6639600   -0.9919631    0.2495119 
H    -4.3754664   -1.9048165   -0.5570350 
H    -4.3325809   -1.6778322    1.1984630 
H    -2.1812366    2.1453031   -0.2738713
*
