!PBE0 def2-SV(p) Opt Freq d3 TightSCF SlowConv RIJCOSX defgrid2
 
%pal
nprocs 4
end
 
%scf
MaxIter 1500
end
 
%maxcore 3000
 

 
* xyz 0 1
C     0.4721574   -1.2096140    0.0000727 
C     1.8549090   -1.2303160    0.0000605 
C     2.5747701   -0.0454260   -0.0000172 
C     1.9067621    1.1694268   -0.0000743 
C     0.5259836    1.1942332   -0.0000542 
C    -0.2111975    0.0073665    0.0000105 
C    -1.6912642    0.1059457   -0.0000003 
O    -2.2546704    1.1867953    0.0001219 
C    -2.4733831   -1.1826609   -0.0001100 
H    -3.5368587   -0.9568304   -0.0002255 
H    -2.2282638   -1.7662512    0.8841745 
H    -2.2280533   -1.7662452   -0.8843369 
H    -0.0129308    2.1305883   -0.0001027 
H     2.4624042    2.0950390   -0.0001369 
H     3.6541296   -0.0688977   -0.0000310 
H     2.3755067   -2.1761430    0.0001114 
H    -0.0674779   -2.1427813    0.0001397
*
