!PBE0 def2-SV(p) Opt Freq d3 TightSCF SlowConv RIJCOSX defgrid2
 
%pal
nprocs 4
end
 
%scf
MaxIter 1500
end
 
%maxcore 3000
 

 
* xyz 0 1
C     0.8626856   -1.1917349    0.0001337 
C     1.2268641    0.1541574    0.0001495 
C     0.2041349    1.1040425    0.0000669 
C    -1.1351766    0.7505080   -0.0000331 
C    -1.4831740   -0.6046711    0.0000053 
C    -0.4693455   -1.5548776    0.0000736 
H    -0.7316071   -2.6040915    0.0000955 
C    -2.9199636   -1.0277294   -0.0000104 
H    -3.0020245   -2.1116815    0.0003383 
H    -3.4329876   -0.6397285   -0.8795274 
H    -3.4331733   -0.6391365    0.8791323 
C    -2.1960323    1.8096794   -0.0001382 
H    -2.8315392    1.7140100    0.8796324 
H    -2.8319560    1.7134335   -0.8795389 
H    -1.7507344    2.8013302   -0.0005592 
H     0.4683087    2.1534879    0.0000716 
C     2.6118984    0.6098405    0.0003070 
C     3.7021878   -0.1491461   -0.0004291 
H     3.6633538   -1.2249607   -0.0012501 
H     4.6870707    0.2861264   -0.0002430 
H     2.7280417    1.6876410    0.0010146 
H     1.6203999   -1.9599514    0.0002287
*
