20
Coordinates from ORCA-job cs_rporg_142_red_opt_01 E -423.402453058161
  C          -0.04188476412109      1.20649591058260     -0.03059416435324
  C          -1.42758997777244      1.20900092946328     -0.03204837740890
  C          -2.18692767221781      0.02207756810286      0.00778089457379
  C          -1.45245337452024     -1.19449457929778      0.04973241541109
  C          -0.07593539048064     -1.21797796728122      0.05192894437349
  C           0.70678686425334     -0.01719078736669      0.01222307749959
  C           2.13722784115349     -0.10484845335572      0.01744599702996
  O           2.77208408754572     -1.18919588733710      0.05436257040856
  C           2.92761835814378      1.20197912887557     -0.02401472346093
  H           3.99999527748817      0.94544780793909     -0.00555889368703
  H           2.70732243738998      1.86415452535943      0.83824522074103
  H           2.72299463114472      1.79839278568954     -0.93685074419013
  H           0.47712353923980     -2.16170105523587      0.08479607463559
  H          -2.00439456793065     -2.14494416213367      0.08164110604136
  C          -3.68607504217989      0.02910769331193      0.00570061758528
  H          -4.12174618431185     -0.45223229822142      0.90826315907933
  H          -4.07802845542654      1.06256533456533     -0.02773326831382
  H          -4.11993664787437     -0.50875039977053     -0.86531963898993
  H          -1.95661019184379      2.17233863527966     -0.06580811854855
  H           0.48615773232032      2.16549327083070     -0.06358124842653
