!PBE0 def2-SV(p) Opt Freq d3 TightSCF SlowConv RIJCOSX defgrid2
 
%pal
nprocs 4
end
 
%scf
MaxIter 1500
end
 
%maxcore 3000
 

 
* xyz -1 2
C    -0.0417565    1.1933888   -0.0039720 
C    -1.4125216    1.2004738   -0.0059969 
C    -2.1627812    0.0199467   -0.0076749 
C    -1.4542018   -1.1912381   -0.0047720 
C    -0.0879339   -1.2201590   -0.0027143 
C     0.6968389   -0.0274841   -0.0006975 
C     2.1097349   -0.0961704    0.0021531 
O     2.7711478   -1.1960516    0.0041094 
C     2.8984852    1.2167941    0.0031667 
H     3.9633162    0.9886634    0.0057516 
H     2.6632162    1.8098215    0.8880202 
H     2.6673393    1.8087288   -0.8835107 
H     0.4467855   -2.1639545   -0.0035817 
H    -2.0085866   -2.1249269   -0.0071610 
C    -3.6640590    0.0417549    0.0154342 
H    -4.0407486   -0.0767610    1.0354709 
H    -4.0407173    0.9861893   -0.3740135 
H    -4.0709483   -0.7722327   -0.5842460 
H    -1.9355486    2.1522643   -0.0091006 
H     0.4886679    2.1366707   -0.0060541
*
