!r2SCAN freq aug-cc-pVTZ d3 TightSCF SlowConv RIJCOSX defgrid2

%pal
nprocs 12
end

%scf
MaxIter 1500
end

%maxcore 5000

!CPCM
%cpcm smd true
SMDsolvent "MeCN"
surfacetype gepol_ses
rsolv 2.19
end 

* xyz -1 2
C           0.68433630663079     -1.22960956684883     -0.00238960875808
C          -0.68874145335648     -1.22498760907054     -0.00113636808568
C          -1.38787991774136      0.00382706301561      0.00006026732043
C          -0.66221578670821      1.21496886998074     -0.00091661444305
C           0.71402238778154      1.19041623228467     -0.00218837304004
C           1.43260956923325     -0.02783911944480     -0.00277792322059
C           2.89005557847109     -0.08353969668668     -0.00381927092700
O           3.49973845463015     -1.16344813624428     -0.00527637264482
C           3.66442304976772      1.21359745522604     -0.00198102782483
H           3.42635136023142      1.81707330248382      0.87801924925868
H           4.73023488820022      0.99282322649189     -0.00417800450894
H           3.42372213728411      1.82131021704802     -0.87824088958464
H           1.24822541463086      2.13272089918993     -0.00306727185407
H          -1.20470441604574      2.14985539005183     -0.00048644451299
N          -2.78211428993464      0.01914520038021      0.00233410805724
O          -3.39154134496408      1.13535867594920      0.00391790715769
O          -3.41610734725044     -1.08342660326893      0.00401353883624
H          -1.25380788266083     -2.14670676615860     -0.00089581787121
H           1.22435879180062     -2.16898883437929     -0.00307658335435
*
