!PBE0 def2-SV(p) Opt Freq d3 TightSCF SlowConv RIJCOSX defgrid2
 
%pal
nprocs 4
end
 
%scf
MaxIter 1500
end
 
%maxcore 3000
 

 
* xyz 0 1
C    -1.6328908    1.1629895   -0.3268286 
C    -2.3551588    0.0104312   -0.0045148 
C    -1.6473940   -1.1486164    0.3203465 
C    -0.2676157   -1.1487241    0.3168862 
C     0.4522682    0.0034786   -0.0018176 
C    -0.2550341    1.1627265   -0.3226855 
H     0.2830224    2.0602050   -0.5890738 
C     1.9219600   -0.0040137    0.0008562 
C     2.6278536   -1.0834918   -0.5275617 
C     4.0106319   -1.0857287   -0.5294956 
C     4.7101258   -0.0160817    0.0052000 
C     4.0182381    1.0596139    0.5377622 
C     2.6355271    1.0692957    0.5315212 
H     2.1009142    1.9036374    0.9613746 
H     4.5585982    1.8942827    0.9597234 
H     5.7899460   -0.0204935    0.0067260 
H     4.5452353   -1.9247442   -0.9501224 
H     2.0878347   -1.9127895   -0.9601805 
H     0.2659271   -2.0486956    0.5842768 
H    -2.1692286   -2.0560809    0.5784646 
C    -3.8335666    0.0814553   -0.0263759 
O    -4.4166421    1.1090430   -0.3275238 
C    -4.5936955   -1.1687332    0.3404198 
H    -5.6608441   -0.9686025    0.2846728 
H    -4.3411926   -1.9728568   -0.3468523 
H    -4.3366345   -1.4778780    1.3509193 
H    -2.1841707    2.0565807   -0.5815310
*
