!TPSSh aug-cc-pVTZ d3 TightSCF SlowConv RIJCOSX defgrid2
 
%pal
nprocs 6
end
 
%scf
MaxIter 1500
end
 
%maxcore 3000
 
!CPCM
%cpcm smd true
SMDsolvent "MeCN"
surfacetype gepol_ses
rsolv 2.19
end 
 
* xyz 0 1
  C          -3.63585826706225      2.04954257401693      0.47443381810844
  C          -4.87241983115698      1.42440470473132      0.35830383536464
  C          -2.46535713813143      1.38616628453744      0.08266169164053
  C          -2.55776657547918      0.09897886985960     -0.46306142975693
  C          -3.79978924952600     -0.51916986182258     -0.59803099874730
  C          -4.95599832971811      0.13746555345514     -0.17809343648610
  C          -1.17321606171113      2.13343259763450      0.18535792234855
  C           0.10741425373326      1.38186400208811      0.36860268391772
  C           1.28701662685068      1.98211173251186     -0.09199289471826
  C           2.51435831281490      1.35446088401070      0.08950879777202
  C           2.57960999330580      0.13076888041485      0.75971104026335
  C           1.41455681703054     -0.45984247248896      1.24776587112461
  C           0.18154991647772      0.15903136862244      1.04843910770257
  O          -1.16409607817297      3.34634804651925      0.11965758705371
  H          -3.86490029176021     -1.51883268544354     -1.03758855311185
  H          -5.92944194329363     -0.35260028721037     -0.27615452017651
  H          -3.54961418329670      3.06533225879298      0.86902811355696
  H          -5.77986414959084      1.94364611495317      0.68059448976304
  H          -1.65609565460764     -0.41312956350598     -0.80981363751728
  H          -0.72685535311036     -0.29990211983977      1.44815127666628
  H           3.54578493689968     -0.36081337126485      0.90876593254533
  H           1.46572642491924     -1.40813704309686      1.79081220626573
  H           1.21423966773037      2.95126688882692     -0.59239016424858
  H           3.42886668785525      1.82280543469765     -0.28640901233067
*
