!r2SCANh aug-cc-pVTZ d3 TightSCF SlowConv RIJCOSX defgrid2
 
%pal
nprocs 4
end
 
%scf
MaxIter 1500
end
 
%maxcore 3000
 
!CPCM
%cpcm smd true
SMDsolvent "MeCN"
surfacetype gepol_ses
rsolv 2.19
end 
 
* xyz 0 1
C          -1.05292788857862     -0.90195039312492     -0.00079244620406
C           0.25383306266426     -1.38568004993578     -0.00080152214741
C           0.54028267273191     -2.86138571234637      0.00203288995712
H          -0.38883857252285     -3.45325509542062     -0.03604059678385
H           1.09291811063176     -3.16010644297053      0.91112317693211
H           1.16170282070714     -3.15090864321875     -0.86421399390079
C           1.30789207458922     -0.46067464080260     -0.00180567347016
C           1.07324062808844      0.91294695875315     -0.00214657152903
C           2.20817617786651      1.89865124490654      0.00209849597546
H           3.18449974454796      1.39049576009947     -0.05807100437114
H           2.13663406413115      2.59705801641470     -0.85077030664783
H           2.20331535520643      2.51020555090965      0.92262417706601
C          -0.25483018407266      1.36349671392215     -0.00225647131416
C          -1.32705255805093      0.47346516287692     -0.00103317270303
C          -2.74855528335392      0.96238121268857      0.00245367553351
H          -3.31064008145775      0.56663508720282     -0.86228812948984
H          -2.79782100162226      2.06283177128710     -0.03746981852679
H          -3.28188878628492      0.63396678514828      0.91282151769573
H          -0.45362964993404      2.44124989130836     -0.00465260761200
H           2.34086357869234     -0.82683387520777     -0.00378196652349
H          -1.88684908397918     -1.61312760249038     -0.00182455193637
*
