22
Coordinates from ORCA-job cs_rporg_076_red_opt_01 E -291.832480481679
  C          -2.28943628984998     -1.08285381421457     -0.27215993229653
  C          -1.22862023156136      0.01586077259453     -0.25601491731078
  N           0.00661098110282     -0.50212633579045      0.31354199000874
  H           0.04448546198884     -0.34374633262279      1.31992834627211
  C           1.26761402703144     -0.16050590389698     -0.31641071653716
  C           1.61227695016871      1.33248737268488     -0.33804198779464
  H           1.67848646199772      1.73094232260326      0.69159025810039
  H           0.85105477369420      1.91805645848033     -0.88142696576002
  H           2.58358136031093      1.51068050094161     -0.83364819199688
  C           2.37625730002657     -0.96447955561106      0.35107581249572
  H           2.13332648923035     -2.03958118968627      0.33268241243102
  H           3.34622361909672     -0.80670159196001     -0.15062911203137
  H           2.49537611972548     -0.65946405577216      1.40819901441394
  H           1.19295505843491     -0.50230950030642     -1.36701945226968
  C          -1.75092025319689      1.26393539098600      0.45804448286514
  H          -1.01077279835727      2.08120251713453      0.44660788818213
  H          -1.98089959571268      1.02983730439430      1.51486395854639
  H          -2.68129026142747      1.63712259892000     -0.00568309259664
  H          -1.00714489185693      0.28572149795558     -1.30571438011138
  H          -1.91525958204469     -1.96452646149950     -0.81800405837007
  H          -2.52324219300596     -1.40342780976556      0.75957368070162
  H          -3.22778530579547     -0.74080268556924     -0.74485933694205
