!TPSSh aug-cc-pVTZ d3 TightSCF SlowConv RIJCOSX defgrid2
 
%pal
nprocs 4
end
 
%scf
MaxIter 1500
end
 
%maxcore 3000
 
!CPCM
%cpcm smd true
SMDsolvent "MeCN"
surfacetype gepol_ses
rsolv 2.19
end 
 
* xyz 0 1
C           0.40935129847802      1.08899379791713      0.00000384882955
C          -0.95414231914494      1.32182421750193     -0.00005479572869
C          -1.86191827278499      0.25058964600211     -0.00004533890107
C          -1.36726530595103     -1.05641439163641      0.00003006046824
C           0.01094866022683     -1.27206289524966      0.00008922357585
C           0.93266713804439     -0.21888039966857      0.00007056076766
C           2.36684587509692     -0.51767487067035      0.00011575273336
C           3.38823314543713      0.35348849766597     -0.00001970079058
C           4.83064699015196     -0.03004243326080      0.00003449739731
H           5.35509581894080      0.37601378760975      0.88589322236429
H           5.35507929274862      0.37569721298307     -0.88597947614651
H           4.95899131799363     -1.12576664862183      0.00022846182052
H           3.17744825013090      1.43140986160214     -0.00019422021756
H           2.61115235789035     -1.58907062561958      0.00027211184136
H           0.38207444452641     -2.30220823516234      0.00014522513242
H          -2.04052486898389     -1.91563792247486      0.00004498692024
O          -3.17027495143014      0.57656429320608     -0.00011215197676
C          -4.11930600301544     -0.44976592613539     -0.00015689920679
H          -4.03333715560747     -1.08818765451818      0.90051262849554
H          -4.03319357489107     -1.08823722923544     -0.90077688540648
H          -5.10638730092634      0.03650069307204     -0.00024757936562
H          -1.35570411969921      2.33832899797413     -0.00010924060884
H           1.08732328276855      1.94703382671904     -0.00000059199744
*
