!PBE0 def2-SV(p) Opt Freq d3 TightSCF SlowConv RIJCOSX defgrid2
 
%pal
nprocs 4
end
 
%scf
MaxIter 1500
end
 
%maxcore 3000
 

 
* xyz 1 2
C     2.1815728   -0.0917839    0.2536966 
C     2.4291298   -0.6800841   -0.9876440 
C     3.7174960   -0.9949302   -1.3397634 
C     4.7911038   -0.7374337   -0.4668197 
C     4.5284855   -0.1457459    0.7771349 
C     3.2361061    0.1732068    1.1294476 
H     3.0360055    0.6338334    2.0841649 
H     5.3277020    0.0699630    1.4666756 
O     5.9981083   -1.0967797   -0.9094349 
C     7.1372418   -0.9165624   -0.0882436 
H     7.0395910   -1.4702683    0.8486785 
H     7.3084187    0.1422507    0.1207816 
H     7.9727475   -1.3139549   -0.6607620 
H     3.9339059   -1.4587522   -2.2882833 
H     1.6213206   -0.8999360   -1.6675768 
S     0.5723832    0.3103303    0.8429630 
S    -0.5721687    0.3117886   -0.8390424 
C    -2.1813962   -0.0913150   -0.2512349 
C    -2.4300212   -0.6803854    0.9895117 
C    -3.7187076   -0.9955686    1.3402828 
C    -4.7914954   -0.7374604    0.4665934 
C    -4.5279270   -0.1449873   -0.7767448 
C    -3.2352931    0.1742830   -1.1276819 
H    -3.0343145    0.6345720   -2.0824268 
H    -5.3265787    0.0706423   -1.4669576 
O    -5.9990604   -1.0967969    0.9081869 
C    -7.1371088   -0.9166311    0.0856651 
H    -7.0373493   -1.4681652   -0.8521253 
H    -7.9729920   -1.3161241    0.6559086 
H    -7.3094233    0.1422917   -0.1214759 
H    -3.9360020   -1.4598018    2.2884124 
H    -1.6228559   -0.9004196    1.6701584
*
