32
Coordinates from ORCA-job cs_rporg_080_ox_opt_01 E -1486.656979917475
  C           2.10074069713964     -0.03623551022709      0.33749659871253
  C           2.28528308407684     -1.00752299995307     -0.66845525084634
  C           3.55854065372565     -1.40796132368585     -1.00587360020280
  C           4.68249131779385     -0.86605497847815     -0.34228468182816
  C           4.49410486888580      0.09282810810827      0.67448234828818
  C           3.21443563230482      0.50407669582157      1.00485264191955
  H           3.07723883642763      1.26509156223799      1.77871020660964
  H           5.34504061581579      0.52911655526770      1.19977321493419
  O           5.85957111079757     -1.32009234548199     -0.73263129283529
  C           7.04850127917866     -0.86024283407437     -0.12168488196846
  H           7.05512576176798     -1.09734211644688      0.95677335906268
  H           7.17453578603241      0.22645663792845     -0.27205541020094
  H           7.86948886250749     -1.39474999506796     -0.61807937295301
  H           3.72936926674930     -2.16465573433241     -1.77503931686740
  H           1.42319555532723     -1.45115446559524     -1.17357438144306
  S           0.53310799676805      0.50835431053803      0.87944925726859
  S          -0.53256657645917      0.51157250736075     -0.87298747821769
  C          -2.10050433131834     -0.03456082645027     -0.33376593608310
  C          -2.28614846748860     -1.00654106417423      0.67133142906854
  C          -3.55972901842260     -1.40767887923690      1.00664018727382
  C          -4.68294557147944     -0.86577074838656      0.34176687797768
  C          -4.49345078730343      0.09376398773271     -0.67420576981618
  C          -3.21349104560759      0.50568127921148     -1.00247721129044
  H          -3.07548115689053      1.26718515114297     -1.77571342523042
  H          -5.34379775111145      0.53000288222862     -1.20048622064007
  O          -5.86039219693820     -1.32045276361291      0.73014290561810
  C          -7.04863669150853     -0.86088719818355      0.11760799023957
  H          -7.05349716792618     -1.09749864586999     -0.96096207362486
  H          -7.87010373607049     -1.39602142441654      0.61252372140508
  H          -7.17540081825230      0.22567978049243      0.26830217206131
  H          -3.73137732634319     -2.16495328714636      1.77505264858787
  H          -1.42462428217865     -1.45015721725065      1.17741544502090
