!r2SCAN aug-cc-pVTZ d3 TightSCF SlowConv RIJCOSX defgrid2
 
%pal
nprocs 4
end
 
%scf
MaxIter 1500
end
 
%maxcore 3000
 
!CPCM
%cpcm smd true
SMDsolvent "MeCN"
surfacetype gepol_ses
rsolv 2.19
end 
 
* xyz 0 1
C          -0.33578897576289      0.78706332413970     -0.00007064342653
C          -1.63104450940735      0.25443214150099      0.00002424994707
C          -1.80666505085776     -1.13184792287007      0.00010488474499
C          -0.67709514280741     -1.95709297790421      0.00008171672668
C           0.60485199074243     -1.42986794226310     -0.00000896897667
C           0.79403740595386     -0.03404919740528     -0.00007754792200
C           2.11776775675579      0.59942775277408     -0.00015788147995
C           3.31301096591764     -0.01037680773538      0.00016998990263
C           4.62672268480693      0.69670422006693      0.00006613977785
H           5.22986800286636      0.42062681248378     -0.88556810108390
H           5.22969209158747      0.42121685919020      0.88600364391119
H           4.49947065542959      1.79239087728672     -0.00031400154329
H           3.35830731979376     -1.10765129675188      0.00055685548665
H           2.10183131012046      1.69773297660842     -0.00050241232510
H           1.46480294351024     -2.10372145346859     -0.00005885954138
H          -0.81507815522221     -3.04272899333565      0.00012435061663
H          -2.80202830314914     -1.57931173714880      0.00017356816380
O          -2.63880088575063      1.15236499149081      0.00002597094029
C          -3.95583677666632      0.68525859520605      0.00017372040280
H          -4.60351833384684      1.57486457447649      0.00019490121742
H          -4.17725863855936      0.08018155004781      0.90083429325456
H          -4.17743481291300      0.08009944047560     -0.90038823724126
H          -0.23264934254160      1.87564721313537     -0.00013303155248
*
