!B3LYP aug-cc-pVTZ d3 TightSCF SlowConv RIJCOSX defgrid2
 
%pal
nprocs 4
end
 
%scf
MaxIter 1500
end
 
%maxcore 3000
 
!CPCM
%cpcm smd true
SMDsolvent "MeCN"
surfacetype gepol_ses
rsolv 2.19
end 
 
* xyz 0 1
C           1.53272654443288     -1.20734713575059      0.00001134953925
C           2.23205656040314      0.00003376074589      0.00002131461898
C           1.53261692111977      1.20735327461293      0.00000329748612
C           0.14128323670377      1.21145943804893     -0.00003641879993
C          -0.57083167401632     -0.00009614629977     -0.00005172301107
C           0.14138939561012     -1.21158285716611     -0.00002530102841
H          -0.41093083938214     -2.15464364427352     -0.00004270609566
C          -2.00037464606059     -0.00010505901986     -0.00009934791315
C          -3.21371752895327      0.00086010309321     -0.00022829616000
H          -4.28895933598145     -0.00028893327027      0.00071781614810
H          -0.41113044461304      2.15446486831874     -0.00006102811420
H           2.07747601296685      2.15600861535335      0.00001063551847
H           3.32604809148087      0.00008333329139      0.00003835626390
H           2.07768150628941     -2.15594681768433      0.00002525154760
*
