!r2SCANh aug-cc-pVTZ d3 TightSCF SlowConv RIJCOSX defgrid2
 
%pal
nprocs 4
end
 
%scf
MaxIter 1500
end
 
%maxcore 3000
 
!CPCM
%cpcm smd true
SMDsolvent "MeCN"
surfacetype gepol_ses
rsolv 2.19
end 
 
* xyz 0 1
C          -0.09723520138673     -1.03437639103764      0.00347054225631
C          -1.47492894930884     -1.20047361725562      0.00696317861110
C          -2.34578623174672     -0.10040313113454      0.00646178626940
C          -1.77456389354337      1.17444029815347      0.00609068858276
C          -0.39219290951861      1.34431389323203      0.00262007400835
C           0.48066721969256      0.24734111354836      0.00061801253520
C           1.92745712323043      0.48416048286104     -0.00147397271183
C           2.90821751377421     -0.43224406598278     -0.00115903608211
C           4.36623513102305     -0.11505487673646     -0.00400250033420
H           4.87200794201926     -0.54390247209158      0.88189528271805
H           4.86926753302145     -0.54728733840504     -0.88981811387895
H           4.54542156577808      0.97343112133202     -0.00638255069427
H           2.64848728832259     -1.49940771664298      0.00136069468406
H           2.21863839458192      1.54365509753515     -0.00378021817366
H           0.02556550649537      2.35646498548500      0.00378810560732
H          -2.42480036039019      2.05550589684769      0.01005021755173
C          -3.83450513941386     -0.29675754696210     -0.01137750175061
H          -4.36818359568584      0.64375253893058      0.20246833077396
H          -4.17808733966479     -0.65741939040861     -0.99869388532750
H          -4.15169482101390     -1.04597884024218      0.73497377180135
H          -1.89116416828829     -2.21365122416981      0.01168808196327
H           0.54303149202221     -1.92102021685601      0.00533651159029
*
