!PBE0 freq def2-SV(p) d3 TightSCF SlowConv RIJCOSX defgrid2

%pal
nprocs 12
end

%scf
MaxIter 1500
end

%maxcore 5000

!CPCM
%cpcm smd true
SMDsolvent "MeCN"
surfacetype gepol_ses
rsolv 2.19
end 

* xyz 0 1
C           0.89710837114459     -1.41780910968001     -0.00029656411824
C           2.11686226499054     -0.74531806488433     -0.00001363647628
C           2.17656404178783      0.66142584795848     -0.00009204222408
C           1.02071281343100      1.43533813020912     -0.00034565296594
C          -0.22053653514228      0.78000832516793     -0.00052659189946
C          -0.24700051420346     -0.62734095682228     -0.00058095857523
O          -1.52619130367969     -1.07030225602950     -0.00042414810992
C          -2.32059385176345      0.03048533885779     -0.00006728553151
C          -1.60371051799133      1.18362694978823     -0.00021825656956
H          -2.00433238620486      2.19667005491330      0.00071768811007
H          -3.39215500169937     -0.16718704474789      0.00091120405305
H           1.07746845133293      2.52768444515191     -0.00031259484933
H           3.15426982079779      1.15265583228468      0.00044878766508
H           3.04654156304627     -1.32222420684599      0.00088937191503
H           0.83404288415352     -2.50873698532142     -0.00000452042370
*
