!PBE0 def2-SV(p) Opt Freq d3 TightSCF SlowConv RIJCOSX defgrid2
 
%pal
nprocs 4
end
 
%scf
MaxIter 1500
end
 
%maxcore 3000
 

 
* xyz 1 2
C     1.2565320   -1.3881458   -0.0000046 
C     2.4296140   -0.6861813   -0.0000152 
C     2.4037950    0.7203555   -0.0000178 
C     1.2133389    1.3901671   -0.0000094 
C    -0.0108880    0.6988001    0.0000002 
N    -1.1890609    1.2796571    0.0000067 
C    -2.3418830    0.7216198    0.0000211 
C    -2.4244743   -0.6912103    0.0000263 
C    -1.2506812   -1.3897656    0.0000219 
C     0.0042775   -0.7533374    0.0000075 
H    -1.2733837   -2.4728656    0.0000331 
H    -3.3947525   -1.1610529    0.0000342 
H    -3.2265654    1.3435990    0.0000270 
H     1.1759861    2.4700754   -0.0000049 
H     3.3350222    1.2654815   -0.0000265 
H     3.3774576   -1.2001163   -0.0000228 
H     1.2715231   -2.4698305   -0.0000114
*
