!PBE0 freq def2-SV(p) d3 TightSCF SlowConv RIJCOSX defgrid2

%pal
nprocs 12
end

%scf
MaxIter 1500
end

%maxcore 5000

!CPCM
%cpcm smd true
SMDsolvent "MeCN"
surfacetype gepol_ses
rsolv 2.19
end 

* xyz 0 1
C          -0.72645263145057     -1.03146408124208      0.00085540923204
C          -1.31849164506042      0.23994274063843      0.00076913015470
C          -0.49775006454032      1.38095947722163      0.00030230653566
C           0.88089580584931      1.25555807012067     -0.00006874067329
C           1.48820871260868     -0.01677540625312      0.00004021786721
C           0.66039799692030     -1.15035536474234      0.00053736247754
H           1.11014252217210     -2.14689324616929      0.00020395157210
C           2.91106969107518     -0.14797115303502     -0.00086204206870
C           4.12173321750396     -0.25813931353825      0.00029604415769
H           5.19579367536718     -0.35502269213131     -0.00111050268717
H           1.50617758544874      2.15233079151561     -0.00068846249924
H          -0.97128025908237      2.36628542923478      0.00038570069437
O          -2.64060324258881      0.45822055677923      0.00106506064239
C          -3.51665442843025     -0.64458669136032     -0.00042583710353
H          -4.53553856002156     -0.22977900613411     -0.00113706114268
H          -3.38179888009198     -1.26848121481963     -0.90291592890065
H          -3.38378828350939     -1.26974647265656      0.90151128518317
H          -1.33630311216980     -1.93662362342831      0.00142430655838
*
