23
Coordinates from ORCA-job cs_rporg_018_ox_opt_08 E -463.520375006962
  C          -0.33666803182593      0.87387725927931      0.00224950043583
  C          -1.60527267573123      0.30572515683772      0.00105884348909
  C          -1.75984581826177     -1.11462509282437      0.00028869816155
  C          -0.63781120335465     -1.92987020807192      0.00328888822389
  C           0.62639976702454     -1.37107696388191      0.00533286087199
  C           0.79278172637951      0.05900655011665      0.00335848385233
  C           2.09127905212894      0.65930122282696      0.00287608449921
  C           3.27431140228722     -0.01962698829955     -0.00195780741242
  C           4.59636859538704      0.63427453281458     -0.00279342426495
  H           5.16933812851862      0.30601966926642     -0.87836852191443
  H           5.17394343950864      0.29732934603458      0.86641958518382
  H           4.52750177901063      1.72115031269952      0.00261747050622
  H           3.27624695599458     -1.10419916855458     -0.00634443234427
  H           2.11916663667144      1.74423253091597      0.00477369293326
  H           1.49309261877595     -2.01590161293601      0.00892814411229
  H          -0.75777301235899     -3.00441873924256      0.00405307417330
  H          -2.74733568834794     -1.55341725046853     -0.00362166180579
  O          -2.64009780361867      1.14137702221222      0.00064499050515
  C          -3.98728109533832      0.61271331821223     -0.00262503946123
  H          -4.62910447971791      1.48831415583646      0.00024456666639
  H          -4.15824125182703      0.01609663878409      0.89317810877055
  H          -4.15590256787947      0.02366941076364     -0.90378951336332
  H          -0.23793387342517      1.95138289767907      0.00142330818156
