26
Coordinates from ORCA-job cs_rporg_015_ox_opt_03 E -539.468867592104
  C           2.42610575113389     -0.93470276212540      0.56435219755542
  C           1.26130223225636     -0.38608639730549     -0.02624885202287
  C           1.35171469018581      0.86963081736239     -0.67785179064930
  C           2.55605014686997      1.55335610447382     -0.72114619099051
  C           3.68950263518694      1.00767097309361     -0.10933778328752
  C           3.61982613561364     -0.23519587708630      0.53462730731208
  H           4.50828653462491     -0.65245426538700      1.01551818523341
  H           4.63938454060128      1.54884622407727     -0.14300041225849
  H           2.62148915258034      2.51032596283069     -1.24507144001958
  H           0.47777377923373      1.27564574577029     -1.19293495064337
  C          -0.00001635212680     -1.10397973210424      0.00009777681817
  C          -0.00003230534171     -2.49730543803619      0.00007551097419
  H          -0.93504433605415     -3.06500424032143     -0.01832116602518
  H           0.93496074229229     -3.06504608516788      0.01842865351676
  C          -1.26132600046743     -0.38607294668391      0.02635395870943
  C          -2.42605802680264     -0.93461646869713     -0.56444873741535
  C          -3.61976331145003     -0.23507431809389     -0.53485525779728
  C          -3.68948764789849      1.00777380186385      0.10913585450581
  C          -2.55610863147560      1.55338093207247      0.72116149627437
  C          -1.35180009233734      0.86960329504430      0.67801279951006
  H          -0.47797987873682      1.27552033139472      1.19340898024632
  H          -2.62159616642124      2.51030574082249      1.24516143202018
  H          -4.63935414475906      1.54898242562489      0.14267552572202
  H          -4.50816465299016     -0.65227117419624     -1.01591215919901
  H          -2.37570848378582     -1.89295211364702     -1.08636459734176
  H           2.37581109006813     -1.89307453557867      1.08620775925198
