!PBE0 def2-SV(p) Opt Freq d3 TightSCF SlowConv RIJCOSX defgrid2

%pal
nprocs 15
end

%scf
MaxIter 1500
end

%maxcore 3500

 

* xyz 1 1
6       -0.104305000     -0.040471000     -1.061442000
6       -0.055499000     -0.991184000     -0.122371000
6       -0.129922000     -0.445247000      1.268353000
7       -0.238424000      1.025539000      0.973169000
6       -0.212745000      1.348463000     -0.488788000
1        0.036661000     -2.061601000     -0.317018000
8       -0.331221000      1.839720000      1.811635000
6       -0.035390000     -0.219010000     -2.530203000
8        0.002221000     -1.496547000     -2.864557000
6       -1.515305000      2.079031000     -0.834583000
1       -1.493924000      2.276443000     -1.918104000
1       -2.398854000      1.461271000     -0.605172000
1       -1.574780000      3.035953000     -0.291517000
6        1.019510000      2.227833000     -0.745184000
1        0.924929000      3.186261000     -0.209445000
1        1.949207000      1.718350000     -0.443835000
1        1.057259000      2.413876000     -1.830259000
6        1.145821000     -0.659998000      2.092454000
1        1.247445000     -1.740261000      2.285663000
1        2.041626000     -0.320447000      1.547889000
1        1.073395000     -0.134553000      3.058866000
6       -1.389732000     -0.857605000      2.039362000
1       -2.303589000     -0.656477000      1.457253000
1       -1.331677000     -1.941487000      2.230145000
1       -1.438572000     -0.330924000      3.006349000
7       -0.011763386      0.888524380     -3.496489386
1       -0.398681534      1.758108057     -3.155536768
1       -0.367899851      0.659089711     -4.414452710
*
