23
Coordinates from ORCA-job cs_rporg_018_ox_opt_06 E -463.202490081843
  C          -0.33502604020477      0.86596500743041      0.00238792061257
  C          -1.60442131447860      0.30064992631910      0.00126441964574
  C          -1.76200796855091     -1.11827896847971      0.00079654672321
  C          -0.64038301762893     -1.93289315778860      0.00364631314182
  C           0.62475393813690     -1.37752400468035      0.00526246798572
  C           0.79410266859926      0.05133512988904      0.00334045151751
  C           2.08914737369558      0.65234205202298      0.00288314744393
  C           3.27697525447128     -0.01853490946842     -0.00253206271997
  C           4.58753258604505      0.64287932328811     -0.00268224412111
  H           5.16655745865907      0.31658151262325     -0.87494947833210
  H           5.17126062701009      0.30583025304081      0.86230998969000
  H           4.51484426479553      1.72891064783402      0.00404980163594
  H           3.28747070615542     -1.10344945386112     -0.00799200816756
  H           2.11408063486498      1.73822985187215      0.00541167838628
  H           1.48882221941777     -2.02605229698285      0.00865411762678
  H          -0.76160937273496     -3.00765871447167      0.00456273471046
  H          -2.74921881286394     -1.55754388325502     -0.00292173421231
  O          -2.63244966971839      1.14098964310180      0.00061260065395
  C          -3.97858047646539      0.62095000947966     -0.00288900378536
  H          -4.61858737899174      1.49754498967943     -0.00104102640870
  H          -4.15623522130798      0.02540031020898      0.89217240355534
  H          -4.15299476149735      0.03152554012033     -0.90256186431195
  H          -0.23687109740796      1.94413519207768      0.00145072872981
